@<TRIPOS>MOLECULE
default_name
 6367  6862   200     0     1 
SMALL
USER_CHARGES
@<TRIPOS>ATOM
  1 HO5'   26.268000    8.270000  148.505000 HO    1 G5      0.4295 ****
  2 O5'    27.119000    7.846000  148.369000 OH    1 G5     -0.6223 ****
  3 C5'    28.117000    7.939000  149.403000 CI    1 G5      0.0558 ****
  4 H5'    27.734000    7.493000  150.321000 H1    1 G5      0.0679 ****
  5 H5''   28.359000    8.987000  149.582000 H1    1 G5      0.0679 ****
  6 C4'    29.376000    7.201000  148.977000 CT    1 G5      0.1065 ****
  7 H4'    30.222000    7.556000  149.565000 H1    1 G5      0.1174 ****
  8 O4'    29.243000    5.793000  149.340000 OS    1 G5     -0.3548 ****
  9 C1'    28.994000    5.013000  148.181000 CT    1 G5      0.0191 ****
 10 H1'    29.788000    4.277000  148.059000 H2    1 G5      0.2006 ****
 11 N9     27.781000    4.184000  148.434000 N*    1 G5      0.0492 ****
 12 C8     26.450000    4.534000  148.336000 CP    1 G5      0.1374 ****
 13 H8     26.175000    5.535000  148.039000 H5    1 G5      0.1640 ****
 14 N7     25.621000    3.563000  148.632000 NB    1 G5     -0.5709 ****
 15 C5     26.455000    2.497000  148.947000 CB    1 G5      0.1744 ****
 16 C6     26.142000    1.170000  149.346000 C     1 G5      0.4770 ****
 17 O6     25.037000    0.655000  149.507000 O     1 G5     -0.5597 ****
 18 N1     27.300000    0.416000  149.566000 NA    1 G5     -0.4787 ****
 19 H1     27.183000   -0.534000  149.853000 H     1 G5      0.3424 ****
 20 C2     28.592000    0.880000  149.418000 CA    1 G5      0.7657 ****
 21 N2     29.566000   -0.003000  149.678000 N2    1 G5     -0.9672 ****
 22 H21    29.455000   -0.960000  149.979000 H     1 G5      0.4364 ****
 23 H22    30.515000    0.331000  149.580000 H     1 G5      0.4364 ****
 24 N3     28.884000    2.122000  149.042000 NC    1 G5     -0.6323 ****
 25 C4     27.768000    2.868000  148.824000 CB    1 G5      0.1222 ****
 26 C3'    29.660000    7.181000  147.474000 CT    1 G5      0.2022 ****
 27 H3'    29.259000    8.085000  147.016000 H1    1 G5      0.0615 ****
 28 C2'    28.860000    5.969000  146.994000 CT    1 G5      0.0670 ****
 29 H2'    28.121000    6.288000  146.258000 H1    1 G5      0.0972 ****
 30 O2'    29.746000    5.018000  146.397000 OH    1 G5     -0.6139 ****
 31 HO2'   29.209000    4.276000  146.110000 HO    1 G5      0.4186 ****
 32 O3'    31.011000    6.980000  147.086000 OS    1 G5     -0.5246 ****
 33 P      29.734000    5.197000  145.785000 P     2 G       1.1662 ****
 34 OP1    30.724000    6.282000  145.599000 O2    2 G      -0.7760 ****
 35 OP2    28.501000    5.258000  144.969000 O2    2 G      -0.7760 ****
 36 O5'    30.546000    3.837000  145.559000 OS    2 G      -0.4989 ****
 37 C5'    31.437000    3.376000  146.593000 CI    2 G       0.0558 ****
 38 H5'    30.873000    3.208000  147.511000 H1    2 G       0.0679 ****
 39 H5''   32.206000    4.127000  146.772000 H1    2 G       0.0679 ****
 40 C4'    32.097000    2.075000  146.167000 CT    2 G       0.1065 ****
 41 H4'    33.001000    1.916000  146.755000 H1    2 G       0.1174 ****
 42 O4'    31.225000    0.962000  146.530000 OS    2 G      -0.3548 ****
 43 C1'    30.593000    0.440000  145.371000 CT    2 G       0.0191 ****
 44 H1'    30.864000   -0.609000  145.249000 H2    2 G       0.2006 ****
 45 N9     29.126000    0.398000  145.624000 N*    2 G       0.0492 ****
 46 C8     28.194000    1.411000  145.526000 CP    2 G       0.1374 ****
 47 H8     28.503000    2.402000  145.229000 H5    2 G       0.1640 ****
 48 N7     26.972000    1.042000  145.822000 NB    2 G      -0.5709 ****
 49 C5     27.098000   -0.306000  146.137000 CB    2 G       0.1744 ****
 50 C6     26.117000   -1.253000  146.536000 C     2 G       0.4770 ****
 51 O6     24.909000   -1.090000  146.697000 O     2 G      -0.5597 ****
 52 N1     26.685000   -2.513000  146.756000 NA    2 G      -0.4787 ****
 53 H1     26.073000   -3.249000  147.043000 H     2 G       0.3424 ****
 54 C2     28.022000   -2.821000  146.608000 CA    2 G       0.7657 ****
 55 N2     28.366000   -4.090000  146.868000 N2    2 G      -0.9672 ****
 56 H21    27.755000   -4.836000  147.169000 H     2 G       0.4364 ****
 57 H22    29.344000   -4.322000  146.770000 H     2 G       0.4364 ****
 58 N3     28.939000   -1.934000  146.232000 NC    2 G      -0.6323 ****
 59 C4     28.403000   -0.703000  146.014000 CB    2 G       0.1222 ****
 60 C3'    32.325000    1.905000  144.664000 CT    2 G       0.2022 ****
 61 H3'    32.476000    2.883000  144.206000 H1    2 G       0.0615 ****
 62 C2'    30.997000    1.317000  144.184000 CT    2 G       0.0670 ****
 63 H2'    30.548000    1.984000  143.448000 H1    2 G       0.0972 ****
 64 O2'    31.229000    0.038000  143.587000 OH    2 G      -0.6139 ****
 65 HO2'   30.376000   -0.297000  143.300000 HO    2 G       0.4186 ****
 66 O3'    33.354000    1.006000  144.276000 OS    2 G      -0.5246 ****
 67 P      31.489000    0.120000  142.910000 P     3 U       1.1662 ****
 68 OP1    32.907000    0.450000  142.643000 O2    3 U      -0.7760 ****
 69 OP2    30.463000    0.881000  142.162000 O2    3 U      -0.7760 ****
 70 O5'    31.368000   -1.458000  142.672000 OS    3 U      -0.4989 ****
 71 C5'    31.897000   -2.356000  143.665000 CI    3 U       0.0558 ****
 72 H5'    31.394000   -2.184000  144.616000 H1    3 U       0.0679 ****
 73 H5''   32.966000   -2.180000  143.783000 H1    3 U       0.0679 ****
 74 C4'    31.673000   -3.797000  143.235000 CT    3 U       0.1065 ****
 75 H4'    32.360000   -4.449000  143.775000 H1    3 U       0.1174 ****
 76 O4'    30.346000   -4.220000  143.673000 OS    3 U      -0.3548 ****
 77 C1'    29.462000   -4.275000  142.563000 CT    3 U       0.0674 ****
 78 H1'    29.081000   -5.290000  142.452000 H2    3 U       0.1824 ****
 79 N1     28.201000   -3.465000  142.870000 N*    3 U       0.0418 ****
 80 C6     28.137000   -2.103000  142.736000 CS    3 U      -0.1126 ****
 81 H6     29.003000   -1.552000  142.398000 H4    3 U       0.2188 ****
 82 C5     26.998000   -1.436000  142.964000 CS    3 U      -0.3635 ****
 83 H5     26.969000   -0.352000  142.850000 HA    3 U       0.1811 ****
 84 C4     25.801000   -2.133000  143.359000 C     3 U       0.5952 ****
 85 O4     24.714000   -1.606000  143.590000 O     3 U      -0.5761 ****
 86 N3     25.957000   -3.500000  143.470000 NA    3 U      -0.3549 ****
 87 H3     25.078000   -4.071000  143.768000 H     3 U       0.3154 ****
 88 C2     27.116000   -4.214000  143.242000 C     3 U       0.4687 ****
 89 O2     27.156000   -5.427000  143.367000 O     3 U      -0.5477 ****
 90 C3'    31.674000   -4.049000  141.726000 CT    3 U       0.2022 ****
 91 H3'    32.327000   -3.326000  141.237000 H1    3 U       0.0615 ****
 92 C2'    30.221000   -3.770000  141.335000 CT    3 U       0.0670 ****
 93 H2'    30.189000   -2.957000  140.609000 H1    3 U       0.0972 ****
 94 O2'    29.649000   -4.947000  140.757000 OH    3 U      -0.6139 ****
 95 HO2'   28.742000   -4.733000  140.526000 HO    3 U       0.4186 ****
 96 O3'    31.983000   -5.369000  141.303000 OS    3 U      -0.5246 ****
 97 P      29.930000   -4.848000  140.170000 P     4 C       1.1662 ****
 98 OP1    31.330000   -5.287000  139.978000 O2    4 C      -0.7760 ****
 99 OP2    29.463000   -3.700000  139.362000 O2    4 C      -0.7760 ****
100 O5'    29.038000   -6.156000  139.940000 OS    4 C      -0.4989 ****
101 C5'    28.998000   -7.164000  140.968000 CI    4 C       0.0558 ****
102 H5'    28.611000   -6.729000  141.889000 H1    4 C       0.0679 ****
103 H5''   30.004000   -7.546000  141.142000 H1    4 C       0.0679 ****
104 C4'    28.096000   -8.309000  140.538000 CT    4 C       0.1065 ****
105 H4'    28.335000   -9.199000  141.121000 H1    4 C       0.1174 ****
106 O4'    26.720000   -7.989000  140.907000 OS    4 C      -0.3548 ****
107 C1'    25.977000   -7.630000  139.751000 CT    4 C       0.0066 ****
108 H1'    25.140000   -8.317000  139.628000 H2    4 C       0.2029 ****
109 N1     25.320000   -6.319000  140.012000 N*    4 C      -0.0484 ****
110 C6     26.002000   -5.150000  139.868000 C4    4 C       0.0053 ****
111 H6     27.037000   -5.164000  139.559000 H4    4 C       0.1958 ****
112 C5     25.400000   -3.954000  140.106000 C4    4 C      -0.5215 ****
113 H5     25.962000   -3.028000  139.986000 HA    4 C       0.1928 ****
114 C4     24.029000   -3.989000  140.512000 CA    4 C       0.8185 ****
115 N4     23.384000   -2.865000  140.760000 N2    4 C      -0.9530 ****
116 H41    22.417000   -2.932000  141.044000 H     4 C       0.4234 ****
117 H42    23.854000   -1.976000  140.665000 H     4 C       0.4234 ****
118 N3     23.370000   -5.136000  140.650000 NC    4 C      -0.7584 ****
119 C2     23.990000   -6.322000  140.407000 C     4 C       0.7538 ****
120 O2     23.410000   -7.412000  140.525000 O     4 C      -0.6252 ****
121 C3'    28.034000   -8.579000  139.033000 CT    4 C       0.2022 ****
122 H3'    28.983000   -8.301000  138.575000 H1    4 C       0.0615 ****
123 C2'    26.939000   -7.620000  138.561000 CT    4 C       0.0670 ****
124 H2'    27.353000   -6.928000  137.829000 H1    4 C       0.0972 ****
125 O2'    25.876000   -8.366000  137.963000 OH    4 C      -0.6139 ****
126 HO2'   25.212000   -7.733000  137.681000 HO    4 C       0.4186 ****
127 O3'    27.651000   -9.889000  138.639000 OS    4 C      -0.5246 ****
128 P      26.054000   -8.364000  137.360000 P     5 C       1.1662 ****
129 OP1    26.995000   -9.490000  137.168000 O2    5 C      -0.7760 ****
130 OP2    26.281000   -7.145000  136.552000 O2    5 C      -0.7760 ****
131 O5'    24.597000   -8.983000  137.130000 OS    5 C      -0.4989 ****
132 C5'    24.019000   -9.809000  138.158000 CI    5 C       0.0558 ****
133 H5'    23.928000   -9.234000  139.079000 H1    5 C       0.0679 ****
134 H5''   24.659000  -10.674000  138.332000 H1    5 C       0.0679 ****
135 C4'    22.641000  -10.285000  137.728000 CT    5 C       0.1065 ****
136 H4'    22.361000  -11.163000  138.311000 H1    5 C       0.1174 ****
137 O4'    21.656000   -9.273000  138.097000 OS    5 C      -0.3548 ****
138 C1'    21.225000   -8.570000  136.941000 CT    5 C       0.0066 ****
139 H1'    20.149000   -8.696000  136.818000 H2    5 C       0.2029 ****
140 N1     21.381000   -7.111000  137.202000 N*    5 C      -0.0484 ****
141 C6     22.585000   -6.496000  137.058000 C4    5 C       0.0053 ****
142 H6     23.449000   -7.066000  136.749000 H4    5 C       0.1958 ****
143 C5     22.725000   -5.165000  137.296000 C4    5 C      -0.5215 ****
144 H5     23.698000   -4.689000  137.176000 HA    5 C       0.1928 ****
145 C4     21.553000   -4.453000  137.702000 CA    5 C       0.8185 ****
146 N4     21.617000   -3.158000  137.950000 N2    5 C      -0.9530 ****
147 H41    20.767000   -2.692000  138.234000 H     5 C       0.4234 ****
148 H42    22.492000   -2.665000  137.855000 H     5 C       0.4234 ****
149 N3     20.378000   -5.063000  137.840000 NC    5 C      -0.7584 ****
150 C2     20.259000   -6.395000  137.597000 C     5 C       0.7538 ****
151 O2     19.182000   -6.999000  137.715000 O     5 C      -0.6252 ****
152 C3'    22.443000  -10.479000  136.223000 CT    5 C       0.2022 ****
153 H3'    23.391000  -10.758000  135.765000 H1    5 C       0.0615 ****
154 C2'    22.040000   -9.081000  135.751000 CT    5 C       0.0670 ****
155 H2'    22.762000   -8.722000  135.019000 H1    5 C       0.0972 ****
156 O2'    20.742000   -9.135000  135.153000 OH    5 C      -0.6139 ****
157 HO2'   20.526000   -8.243000  134.871000 HO    5 C       0.4186 ****
158 O3'    21.413000  -11.374000  135.829000 OS    5 C      -0.5246 ****
159 P      20.781000   -9.411000  134.480000 P     6 U       1.1662 ****
160 OP1    20.909000  -10.861000  134.213000 O2    6 U      -0.7760 ****
161 OP2    21.680000   -8.503000  133.732000 O2    6 U      -0.7760 ****
162 O5'    19.237000   -9.069000  134.242000 OS    6 U      -0.4989 ****
163 C5'    18.273000   -9.466000  135.235000 CI    6 U       0.0558 ****
164 H5'    18.514000   -8.992000  136.186000 H1    6 U       0.0679 ****
165 H5''   18.297000  -10.550000  135.353000 H1    6 U       0.0679 ****
166 C4'    16.878000   -9.042000  134.805000 CT    6 U       0.1065 ****
167 H4'    16.136000   -9.629000  135.345000 H1    6 U       0.1174 ****
168 O4'    16.646000   -7.668000  135.243000 OS    6 U      -0.3548 ****
169 C1'    16.716000   -6.785000  134.133000 CT    6 U       0.0674 ****
170 H1'    15.765000   -6.265000  134.022000 H2    6 U       0.1824 ****
171 N1     17.696000   -5.651000  134.440000 N*    6 U       0.0418 ****
172 C6     19.053000   -5.779000  134.306000 CS    6 U      -0.1126 ****
173 H6     19.476000   -6.714000  133.968000 H4    6 U       0.2188 ****
174 C5     19.875000   -4.746000  134.534000 CS    6 U      -0.3635 ****
175 H5     20.952000   -4.870000  134.420000 HA    6 U       0.1811 ****
176 C4     19.353000   -3.463000  134.929000 C     6 U       0.5952 ****
177 O4     20.027000   -2.461000  135.160000 O     6 U      -0.5761 ****
178 N3     17.978000   -3.425000  135.040000 NA    6 U      -0.3549 ****
179 H3     17.535000   -2.474000  135.338000 H     6 U       0.3154 ****
180 C2     17.107000   -4.471000  134.812000 C     6 U       0.4687 ****
181 O2     15.901000   -4.340000  134.937000 O     6 U      -0.5477 ****
182 C3'    16.629000   -9.007000  133.296000 CT    6 U       0.2022 ****
183 H3'    17.252000   -9.755000  132.807000 H1    6 U       0.0615 ****
184 C2'    17.109000   -7.608000  132.905000 CT    6 U       0.0670 ****
185 H2'    17.918000   -7.691000  132.179000 H1    6 U       0.0972 ****
186 O2'    16.025000   -6.876000  132.327000 OH    6 U      -0.6139 ****
187 HO2'   16.364000   -6.008000  132.096000 HO    6 U       0.4186 ****
188 O3'    15.278000   -9.127000  132.873000 OS    6 U      -0.5246 ****
189 P      15.872000   -7.272000  131.632000 P     7 A       1.1662 ****
190 OP1    15.190000   -8.556000  131.356000 O2    7 A      -0.7760 ****
191 OP2    17.119000   -6.992000  130.885000 O2    7 A      -0.7760 ****
192 O5'    14.762000   -6.143000  131.405000 OS    7 A      -0.4989 ****
193 C5'    13.738000   -5.960000  132.401000 CI    7 A       0.0558 ****
194 H5'    14.199000   -5.701000  133.354000 H1    7 A       0.0679 ****
195 H5''   13.170000   -6.884000  132.512000 H1    7 A       0.0679 ****
196 C4'    12.798000   -4.842000  131.981000 CT    7 A       0.1065 ****
197 H4'    11.856000   -4.936000  132.522000 H1    7 A       0.1174 ****
198 O4'    13.351000   -3.567000  132.428000 OS    7 A      -0.3548 ****
199 C1'    13.888000   -2.855000  131.323000 CT    7 A       0.0394 ****
200 H1'    13.373000   -1.900000  131.220000 H2    7 A       0.2007 ****
201 N9     15.318000   -2.441000  131.630000 N*    7 A      -0.0251 ****
202 C8     16.496000   -3.136000  131.548000 C5    7 A       0.2006 ****
203 H8     16.495000   -4.164000  131.216000 H5    7 A       0.1553 ****
204 N7     17.547000   -2.428000  131.838000 NB    7 A      -0.6073 ****
205 C5     17.034000   -1.171000  132.134000 CB    7 A       0.0515 ****
206 C6     17.642000    0.031000  132.518000 CA    7 A       0.7009 ****
207 N6     18.965000    0.172000  132.679000 N2    7 A      -0.9019 ****
208 H61    19.347000    1.064000  132.957000 H     7 A       0.4115 ****
209 H62    19.579000   -0.614000  132.520000 H     7 A       0.4115 ****
210 N1     16.844000    1.085000  132.733000 NC    7 A      -0.7615 ****
211 C2     15.531000    0.939000  132.573000 CQ    7 A       0.5875 ****
212 H2     14.870000    1.776000  132.741000 H5    7 A       0.0473 ****
213 N3     14.849000   -0.134000  132.217000 NC    7 A      -0.6997 ****
214 C4     15.677000   -1.180000  132.007000 CB    7 A       0.3053 ****
215 C3'    12.605000   -4.666000  130.473000 CT    7 A       0.2022 ****
216 H3'    12.721000   -5.629000  129.976000 H1    7 A       0.0615 ****
217 C2'    13.768000   -3.750000  130.088000 CT    7 A       0.0670 ****
218 H2'    14.402000   -4.254000  129.358000 H1    7 A       0.0972 ****
219 O2'    13.256000   -2.541000  129.520000 OH    7 A      -0.6139 ****
220 HO2'   14.013000   -1.996000  129.292000 HO    7 A       0.4186 ****
221 O3'    11.406000   -4.029000  130.057000 OS    7 A      -0.5246 ****
222 P      12.936000   -2.810000  128.860000 P     8 U       1.1662 ****
223 OP1    11.670000   -3.529000  128.593000 O2    8 U      -0.7760 ****
224 OP2    14.136000   -3.248000  128.112000 O2    8 U      -0.7760 ****
225 O5'    12.604000   -1.263000  128.622000 OS    8 U      -0.4989 ****
226 C5'    11.841000   -0.551000  129.615000 CI    8 U       0.0558 ****
227 H5'    12.373000   -0.574000  130.566000 H1    8 U       0.0679 ****
228 H5''   10.867000   -1.025000  129.733000 H1    8 U       0.0679 ****
229 C4'    11.647000    0.893000  129.185000 CT    8 U       0.1065 ****
230 H4'    10.804000    1.323000  129.725000 H1    8 U       0.1174 ****
231 O4'    12.799000    1.675000  129.623000 OS    8 U      -0.3548 ****
232 C1'    13.631000    1.980000  128.513000 CT    8 U       0.0674 ****
233 H1'    13.709000    3.061000  128.402000 H2    8 U       0.1824 ****
234 N1     15.070000    1.561000  128.820000 N*    8 U       0.0418 ****
235 C6     15.518000    0.274000  128.686000 CS    8 U      -0.1126 ****
236 H6     14.845000   -0.500000  128.348000 H4    8 U       0.2188 ****
237 C5     16.800000   -0.043000  128.914000 CS    8 U      -0.3635 ****
238 H5     17.136000   -1.074000  128.800000 HA    8 U       0.1811 ****
239 C4     17.749000    0.965000  129.309000 C     8 U       0.5952 ****
240 O4     18.942000    0.769000  129.540000 O     8 U      -0.5761 ****
241 N3     17.212000    2.231000  129.420000 NA    8 U      -0.3549 ****
242 H3     17.892000    3.029000  129.718000 H     8 U       0.3154 ****
243 C2     15.898000    2.588000  129.192000 C     8 U       0.4687 ****
244 O2     15.515000    3.739000  129.317000 O     8 U      -0.5477 ****
245 C3'    11.574000    1.134000  127.676000 CT    8 U       0.2022 ****
246 H3'    11.154000    0.256000  127.187000 H1    8 U       0.0615 ****
247 C2'    13.046000    1.280000  127.285000 CT    8 U       0.0670 ****
248 H2'    13.308000    0.510000  126.559000 H1    8 U       0.0972 ****
249 O2'    13.261000    2.570000  126.707000 OH    8 U      -0.6139 ****
250 HO2'   14.191000    2.623000  126.476000 HO    8 U       0.4186 ****
251 O3'    10.903000    2.312000  127.253000 OS    8 U      -0.5246 ****
252 P      12.837000    2.544000  126.012000 P     9 A       1.1662 ****
253 OP1    11.386000    2.630000  125.736000 O2    9 A      -0.7760 ****
254 OP2    13.610000    1.527000  125.265000 O2    9 A      -0.7760 ****
255 O5'    13.402000    4.024000  125.785000 OS    9 A      -0.4989 ****
256 C5'    13.141000    5.031000  126.781000 CI    9 A       0.0558 ****
257 H5'    13.569000    4.719000  127.734000 H1    9 A       0.0679 ****
258 H5''   12.065000    5.163000  126.892000 H1    9 A       0.0679 ****
259 C4'    13.767000    6.351000  126.361000 CT    9 A       0.1065 ****
260 H4'    13.289000    7.168000  126.902000 H1    9 A       0.1174 ****
261 O4'    15.156000    6.379000  126.808000 OS    9 A      -0.3548 ****
262 C1'    16.027000    6.187000  125.703000 CT    9 A       0.0394 ****
263 H1'    16.681000    7.053000  125.600000 H2    9 A       0.2007 ****
264 N9     16.999000    5.059000  126.010000 N*    9 A      -0.0251 ****
265 C8     16.857000    3.699000  125.928000 C5    9 A       0.2006 ****
266 H8     15.922000    3.272000  125.596000 H5    9 A       0.1553 ****
267 N7     17.938000    3.038000  126.218000 NB    9 A      -0.6073 ****
268 C5     18.868000    4.028000  126.514000 CB    9 A       0.0515 ****
269 C6     20.214000    3.975000  126.898000 CA    9 A       0.7009 ****
270 N6     20.893000    2.831000  127.059000 N2    9 A      -0.9019 ****
271 H61    21.863000    2.855000  127.337000 H     9 A       0.4115 ****
272 H62    20.434000    1.946000  126.900000 H     9 A       0.4115 ****
273 N1     20.840000    5.140000  127.113000 NC    9 A      -0.7615 ****
274 C2     20.161000    6.272000  126.953000 CQ    9 A       0.5875 ****
275 H2     20.647000    7.222000  127.121000 H5    9 A       0.0473 ****
276 N3     18.902000    6.446000  126.597000 NC    9 A      -0.6997 ****
277 C4     18.295000    5.258000  126.387000 CB    9 A       0.3053 ****
278 C3'    13.847000    6.600000  124.853000 CT    9 A       0.2022 ****
279 H3'    13.019000    6.093000  124.356000 H1    9 A       0.0615 ****
280 C2'    15.164000    5.924000  124.468000 CT    9 A       0.0670 ****
281 H2'    14.969000    5.138000  123.738000 H1    9 A       0.0972 ****
282 O2'    16.050000    6.892000  123.900000 OH    9 A      -0.6139 ****
283 HO2'   16.861000    6.432000  123.672000 HO    9 A       0.4186 ****
284 O3'    13.927000    7.955000  124.437000 OS    9 A      -0.5246 ****
285 P      15.737000    6.868000  123.310000 P    10 C       1.1662 ****
286 OP1    14.515000    7.680000  123.118000 O2   10 C      -0.7760 ****
287 OP2    15.866000    5.635000  122.502000 O2   10 C      -0.7760 ****
288 O5'    16.959000    7.875000  123.080000 OS   10 C      -0.4989 ****
289 C5'    17.278000    8.832000  124.108000 CI   10 C       0.0558 ****
290 H5'    17.529000    8.306000  125.029000 H1   10 C       0.0679 ****
291 H5''   16.419000    9.480000  124.282000 H1   10 C       0.0679 ****
292 C4'    18.464000    9.680000  123.678000 CT   10 C       0.1065 ****
293 H4'    18.483000   10.601000  124.261000 H1   10 C       0.1174 ****
294 O4'    19.697000    8.989000  124.047000 OS   10 C      -0.3548 ****
295 C1'    20.309000    8.437000  122.891000 CT   10 C       0.0066 ****
296 H1'    21.305000    8.863000  122.768000 H2   10 C       0.2029 ****
297 N1     20.574000    6.994000  123.152000 N*   10 C      -0.0484 ****
298 C6     19.594000    6.062000  123.008000 C4   10 C       0.0053 ****
299 H6     18.604000    6.364000  122.699000 H4   10 C       0.1958 ****
300 C5     19.838000    4.746000  123.246000 C4   10 C      -0.5215 ****
301 H5     19.040000    4.013000  123.126000 HA   10 C       0.1928 ****
302 C4     21.164000    4.397000  123.652000 CA   10 C       0.8185 ****
303 N4     21.471000    3.137000  123.900000 N2   10 C      -0.9530 ****
304 H41    22.418000    2.932000  124.184000 H    10 C       0.4234 ****
305 H42    20.771000    2.415000  123.805000 H    10 C       0.4234 ****
306 N3     22.117000    5.315000  123.790000 NC   10 C      -0.7584 ****
307 C2     21.853000    6.626000  123.547000 C    10 C       0.7538 ****
308 O2     22.714000    7.511000  123.665000 O    10 C      -0.6252 ****
309 C3'    18.599000    9.922000  122.173000 CT   10 C       0.2022 ****
310 H3'    17.610000    9.920000  121.715000 H1   10 C       0.0615 ****
311 C2'    19.383000    8.696000  121.701000 CT   10 C       0.0670 ****
312 H2'    18.792000    8.146000  120.969000 H1   10 C       0.0972 ****
313 O2'    20.612000    9.116000  121.103000 OH   10 C      -0.6139 ****
314 HO2'   21.072000    8.322000  120.821000 HO   10 C       0.4186 ****
315 O3'    19.332000   11.073000  121.779000 OS   10 C      -0.5246 ****
316 P      20.496000    9.370000  120.430000 P    11 U       1.1662 ****
317 OP1    19.962000   10.724000  120.163000 O2   11 U      -0.7760 ****
318 OP2    19.892000    8.244000  119.682000 O2   11 U      -0.7760 ****
319 O5'    22.074000    9.480000  120.192000 OS   11 U      -0.4989 ****
320 C5'    22.885000   10.135000  121.185000 CI   11 U       0.0558 ****
321 H5'    22.789000    9.612000  122.136000 H1   11 U       0.0679 ****
322 H5''   22.554000   11.167000  121.303000 H1   11 U       0.0679 ****
323 C4'    24.343000   10.124000  120.755000 CT   11 U       0.1065 ****
324 H4'    24.888000   10.898000  121.295000 H1   11 U       0.1174 ****
325 O4'    24.955000    8.873000  121.193000 OS   11 U      -0.3548 ****
326 C1'    25.139000    8.007000  120.083000 CT   11 U       0.0674 ****
327 H1'    26.199000    7.777000  119.972000 H2   11 U       0.1824 ****
328 N1     24.522000    6.641000  120.390000 N*   11 U       0.0418 ****
329 C6     23.184000    6.378000  120.256000 CS   11 U      -0.1126 ****
330 H6     22.513000    7.154000  119.918000 H4   11 U       0.2188 ****
331 C5     22.690000    5.154000  120.484000 CS   11 U      -0.3635 ****
332 H5     21.622000    4.967000  120.370000 HA   11 U       0.1811 ****
333 C4     23.555000    4.072000  120.879000 C    11 U       0.5952 ****
334 O4     23.193000    2.920000  121.110000 O    11 U      -0.5761 ****
335 N3     24.884000    4.426000  120.990000 NA   11 U      -0.3549 ****
336 H3     25.578000    3.640000  121.288000 H    11 U       0.3154 ****
337 C2     25.421000    5.677000  120.762000 C    11 U       0.4687 ****
338 O2     26.616000    5.893000  120.887000 O    11 U      -0.5477 ****
339 C3'    24.592000   10.162000  119.246000 CT   11 U       0.2022 ****
340 H3'    23.781000   10.702000  118.757000 H1   11 U       0.0615 ****
341 C2'    24.529000    8.684000  118.855000 CT   11 U       0.0670 ****
342 H2'    23.729000    8.533000  118.129000 H1   11 U       0.0972 ****
343 O2'    25.776000    8.289000  118.277000 OH   11 U      -0.6139 ****
344 HO2'   25.697000    7.361000  118.046000 HO   11 U       0.4186 ****
345 O3'    25.853000   10.660000  118.823000 OS   11 U      -0.5246 ****
346 P      25.796000    8.697000  117.620000 P    12 U       1.1662 ****
347 OP1    26.078000   10.126000  117.353000 O2   12 U      -0.7760 ****
348 OP2    24.680000    8.076000  116.872000 O2   12 U      -0.7760 ****
349 O5'    27.184000    7.938000  117.382000 OS   12 U      -0.4989 ****
350 C5'    28.220000    8.050000  118.375000 CI   12 U       0.0558 ****
351 H5'    27.856000    7.663000  119.326000 H1   12 U       0.0679 ****
352 H5''   28.499000    9.098000  118.493000 H1   12 U       0.0679 ****
353 C4'    29.441000    7.254000  117.945000 CT   12 U       0.1065 ****
354 H4'    30.318000    7.611000  118.485000 H1   12 U       0.1174 ****
355 O4'    29.280000    5.870000  118.383000 OS   12 U      -0.3548 ****
356 C1'    28.967000    5.042000  117.273000 CT   12 U       0.0674 ****
357 H1'    29.735000    4.276000  117.162000 H2   12 U       0.1824 ****
358 N1     27.710000    4.226000  117.580000 N*   12 U       0.0418 ****
359 C6     26.442000    4.728000  117.446000 CS   12 U      -0.1126 ****
360 H6     26.297000    5.743000  117.108000 H4   12 U       0.2188 ****
361 C5     25.365000    3.964000  117.674000 CS   12 U      -0.3635 ****
362 H5     24.365000    4.384000  117.560000 HA   12 U       0.1811 ****
363 C4     25.508000    2.587000  118.069000 C    12 U       0.5952 ****
364 O4     24.581000    1.812000  118.300000 O    12 U      -0.5761 ****
365 N3     26.818000    2.167000  118.180000 NA   12 U      -0.3549 ****
366 H3     26.977000    1.130000  118.478000 H    12 U       0.3154 ****
367 C2     27.946000    2.928000  117.952000 C    12 U       0.4687 ****
368 O2     29.068000    2.466000  118.077000 O    12 U      -0.5477 ****
369 C3'    29.671000    7.151000  116.436000 CT   12 U       0.2022 ****
370 H3'    29.281000    8.044000  115.947000 H1   12 U       0.0615 ****
371 C2'    28.820000    5.941000  116.045000 CT   12 U       0.0670 ****
372 H2'    28.065000    6.247000  115.319000 H1   12 U       0.0972 ****
373 O2'    29.656000    4.936000  115.467000 OH   12 U      -0.6139 ****
374 HO2'   29.088000    4.197000  115.236000 HO   12 U       0.4186 ****
375 O3'    31.001000    6.889000  116.013000 OS   12 U      -0.5246 ****
376 P      29.682000    5.232000  114.880000 P    13 C       1.1662 ****
377 OP1    30.658000    6.328000  114.688000 O2   13 C      -0.7760 ****
378 OP2    28.443000    5.279000  114.072000 O2   13 C      -0.7760 ****
379 O5'    30.507000    3.881000  114.650000 OS   13 C      -0.4989 ****
380 C5'    31.409000    3.430000  115.678000 CI   13 C       0.0558 ****
381 H5'    30.853000    3.256000  116.599000 H1   13 C       0.0679 ****
382 H5''   32.171000    4.190000  115.852000 H1   13 C       0.0679 ****
383 C4'    32.081000    2.136000  115.248000 CT   13 C       0.1065 ****
384 H4'    32.991000    1.988000  115.831000 H1   13 C       0.1174 ****
385 O4'    31.224000    1.014000  115.617000 OS   13 C      -0.3548 ****
386 C1'    30.591000    0.485000  114.461000 CT   13 C       0.0066 ****
387 H1'    30.873000   -0.561000  114.338000 H2   13 C       0.2029 ****
388 N1     29.125000    0.426000  114.722000 N*   13 C      -0.0484 ****
389 C6     28.341000    1.528000  114.578000 C4   13 C       0.0053 ****
390 H6     28.779000    2.466000  114.269000 H4   13 C       0.1958 ****
391 C5     27.003000    1.472000  114.816000 C4   13 C      -0.5215 ****
392 H5     26.390000    2.365000  114.696000 HA   13 C       0.1928 ****
393 C4     26.471000    0.208000  115.222000 CA   13 C       0.8185 ****
394 N4     25.181000    0.082000  115.470000 N2   13 C      -0.9530 ****
395 H41    24.844000   -0.827000  115.754000 H    13 C       0.4234 ****
396 H42    24.564000    0.876000  115.375000 H    13 C       0.4234 ****
397 N3     27.245000   -0.865000  115.360000 NC   13 C      -0.7584 ****
398 C2     28.581000   -0.788000  115.117000 C    13 C       0.7538 ****
399 O2     29.335000   -1.765000  115.235000 O    13 C      -0.6252 ****
400 C3'    32.302000    1.969000  113.743000 CT   13 C       0.2022 ****
401 H3'    32.440000    2.948000  113.285000 H1   13 C       0.0615 ****
402 C2'    30.978000    1.366000  113.271000 CT   13 C       0.0670 ****
403 H2'    30.517000    2.028000  112.539000 H1   13 C       0.0972 ****
404 O2'    31.220000    0.090000  112.673000 OH   13 C      -0.6139 ****
405 HO2'   30.370000   -0.254000  112.391000 HO   13 C       0.4186 ****
406 O3'    33.338000    1.081000  113.349000 OS   13 C      -0.5246 ****
407 P      31.508000    0.163000  111.962000 P    14 A       1.1662 ****
408 OP1    32.924000    0.493000  111.686000 O2   14 A      -0.7760 ****
409 OP2    30.478000    0.919000  111.215000 O2   14 A      -0.7760 ****
410 O5'    31.387000   -1.416000  111.735000 OS   14 A      -0.4989 ****
411 C5'    31.923000   -2.308000  112.731000 CI   14 A       0.0558 ****
412 H5'    31.424000   -2.130000  113.684000 H1   14 A       0.0679 ****
413 H5''   32.992000   -2.129000  112.842000 H1   14 A       0.0679 ****
414 C4'    31.698000   -3.751000  112.311000 CT   14 A       0.1065 ****
415 H4'    32.388000   -4.399000  112.852000 H1   14 A       0.1174 ****
416 O4'    30.374000   -4.173000  112.758000 OS   14 A      -0.3548 ****
417 C1'    29.484000   -4.236000  111.653000 CT   14 A       0.0394 ****
418 H1'    29.103000   -5.252000  111.550000 H2   14 A       0.2007 ****
419 N9     28.232000   -3.431000  111.960000 N*   14 A      -0.0251 ****
420 C8     27.982000   -2.086000  111.878000 C5   14 A       0.2006 ****
421 H8     28.757000   -1.411000  111.546000 H5   14 A       0.1553 ****
422 N7     26.757000   -1.760000  112.168000 NB   14 A      -0.6073 ****
423 C5     26.147000   -2.973000  112.464000 CB   14 A       0.0515 ****
424 C6     24.842000   -3.304000  112.848000 CA   14 A       0.7009 ****
425 N6     23.866000   -2.400000  113.009000 N2   14 A      -0.9019 ****
426 H61    22.942000   -2.699000  113.287000 H    14 A       0.4115 ****
427 H62    24.054000   -1.421000  112.850000 H    14 A       0.4115 ****
428 N1     24.572000   -4.599000  113.063000 NC   14 A      -0.7615 ****
429 C2     25.545000   -5.492000  112.903000 CQ   14 A       0.5875 ****
430 H2     25.349000   -6.540000  113.071000 H5   14 A       0.0473 ****
431 N3     26.802000   -5.300000  112.547000 NC   14 A      -0.6997 ****
432 C4     27.046000   -3.989000  112.337000 CB   14 A       0.3053 ****
433 C3'    31.692000   -4.013000  110.803000 CT   14 A       0.2022 ****
434 H3'    32.342000   -3.292000  110.306000 H1   14 A       0.0615 ****
435 C2'    30.237000   -3.738000  110.418000 CT   14 A       0.0670 ****
436 H2'    30.200000   -2.930000  109.688000 H1   14 A       0.0972 ****
437 O2'    29.663000   -4.918000  109.850000 OH   14 A      -0.6139 ****
438 HO2'   28.754000   -4.707000  109.622000 HO   14 A       0.4186 ****
439 O3'    32.000000   -5.335000  110.387000 OS   14 A      -0.5246 ****
440 P      30.089000   -5.000000  109.152000 P    15 A       1.1662 ****
441 OP1    31.459000   -5.487000  108.876000 O2   15 A      -0.7760 ****
442 OP2    29.630000   -3.807000  108.405000 O2   15 A      -0.7760 ****
443 O5'    29.134000   -6.263000  108.925000 OS   15 A      -0.4989 ****
444 C5'    29.103000   -7.303000  109.921000 CI   15 A       0.0558 ****
445 H5'    28.780000   -6.884000  110.874000 H1   15 A       0.0679 ****
446 H5''   30.100000   -7.730000  110.032000 H1   15 A       0.0679 ****
447 C4'    28.135000   -8.396000  109.501000 CT   15 A       0.1065 ****
448 H4'    28.365000   -9.314000  110.042000 H1   15 A       0.1174 ****
449 O4'    26.792000   -8.035000  109.948000 OS   15 A      -0.3548 ****
450 C1'    26.010000   -7.608000  108.843000 CT   15 A       0.0394 ****
451 H1'    25.140000   -8.257000  108.740000 H2   15 A       0.2007 ****
452 N9     25.391000   -6.254000  109.150000 N*   15 A      -0.0251 ****
453 C8     25.907000   -4.987000  109.068000 C5   15 A       0.2006 ****
454 H8     26.924000   -4.838000  108.736000 H5   15 A       0.1553 ****
455 N7     25.053000   -4.051000  109.358000 NB   15 A      -0.6073 ****
456 C5     23.884000   -4.742000  109.654000 CB   15 A       0.0515 ****
457 C6     22.606000   -4.316000  110.038000 CA   15 A       0.7009 ****
458 N6     22.273000   -3.028000  110.199000 N2   15 A      -0.9019 ****
459 H61    21.335000   -2.780000  110.477000 H    15 A       0.4115 ****
460 H62    22.961000   -2.305000  110.040000 H    15 A       0.4115 ****
461 N1     21.680000   -5.260000  110.253000 NC   15 A      -0.7615 ****
462 C2     22.016000   -6.536000  110.093000 CQ   15 A       0.5875 ****
463 H2     21.285000   -7.313000  110.261000 H5   15 A       0.0473 ****
464 N3     23.177000   -7.054000  109.737000 NC   15 A      -0.6997 ****
465 C4     24.091000   -6.083000  109.527000 CB   15 A       0.3053 ****
466 C3'    27.988000   -8.613000  107.993000 CT   15 A       0.2022 ****
467 H3'    28.924000   -8.357000  107.496000 H1   15 A       0.0615 ****
468 C2'    26.912000   -7.596000  107.608000 CT   15 A       0.0670 ****
469 H2'    27.318000   -6.895000  106.878000 H1   15 A       0.0972 ****
470 O2'    25.791000   -8.279000  107.040000 OH   15 A      -0.6139 ****
471 HO2'   25.141000   -7.610000  106.812000 HO   15 A       0.4186 ****
472 O3'    27.533000   -9.892000  107.577000 OS   15 A      -0.5246 ****
473 P      26.098000   -8.342000  106.450000 P    16 C       1.1662 ****
474 OP1    27.045000   -9.463000  106.258000 O2   16 C      -0.7760 ****
475 OP2    26.319000   -7.122000  105.642000 O2   16 C      -0.7760 ****
476 O5'    24.644000   -8.969000  106.220000 OS   16 C      -0.4989 ****
477 C5'    24.070000   -9.798000  107.248000 CI   16 C       0.0558 ****
478 H5'    23.976000   -9.223000  108.169000 H1   16 C       0.0679 ****
479 H5''   24.715000  -10.660000  107.422000 H1   16 C       0.0679 ****
480 C4'    22.695000  -10.282000  106.818000 CT   16 C       0.1065 ****
481 H4'    22.420000  -11.161000  107.401000 H1   16 C       0.1174 ****
482 O4'    21.704000   -9.275000  107.187000 OS   16 C      -0.3548 ****
483 C1'    21.270000   -8.573000  106.031000 CT   16 C       0.0066 ****
484 H1'    20.195000   -8.705000  105.908000 H2   16 C       0.2029 ****
485 N1     21.418000   -7.114000  106.292000 N*   16 C      -0.0484 ****
486 C6     22.619000   -6.493000  106.148000 C4   16 C       0.0053 ****
487 H6     23.486000   -7.059000  105.839000 H4   16 C       0.1958 ****
488 C5     22.752000   -5.161000  106.386000 C4   16 C      -0.5215 ****
489 H5     23.723000   -4.680000  106.266000 HA   16 C       0.1928 ****
490 C4     21.576000   -4.456000  106.792000 CA   16 C       0.8185 ****
491 N4     21.633000   -3.160000  107.040000 N2   16 C      -0.9530 ****
492 H41    20.781000   -2.699000  107.324000 H    16 C       0.4234 ****
493 H42    22.506000   -2.662000  106.945000 H    16 C       0.4234 ****
494 N3     20.405000   -5.071000  106.930000 NC   16 C      -0.7584 ****
495 C2     20.293000   -6.404000  106.687000 C    16 C       0.7538 ****
496 O2     19.219000   -7.013000  106.805000 O    16 C      -0.6252 ****
497 C3'    22.498000  -10.477000  105.313000 CT   16 C       0.2022 ****
498 H3'    23.448000  -10.751000  104.855000 H1   16 C       0.0615 ****
499 C2'    22.087000   -9.081000  104.841000 CT   16 C       0.0670 ****
500 H2'    22.808000   -8.718000  104.109000 H1   16 C       0.0972 ****
501 O2'    20.790000   -9.141000  104.243000 OH   16 C      -0.6139 ****
502 HO2'   20.569000   -8.250000  103.961000 HO   16 C       0.4186 ****
503 O3'    21.473000  -11.377000  104.919000 OS   16 C      -0.5246 ****
504 P      20.831000   -9.417000  103.570000 P    17 U       1.1662 ****
505 OP1    20.966000  -10.867000  103.303000 O2   17 U      -0.7760 ****
506 OP2    21.724000   -8.504000  102.822000 O2   17 U      -0.7760 ****
507 O5'    19.284000   -9.083000  103.332000 OS   17 U      -0.4989 ****
508 C5'    18.322000   -9.486000  104.325000 CI   17 U       0.0558 ****
509 H5'    18.561000   -9.010000  105.276000 H1   17 U       0.0679 ****
510 H5''   18.352000  -10.569000  104.443000 H1   17 U       0.0679 ****
511 C4'    16.925000   -9.068000  103.895000 CT   17 U       0.1065 ****
512 H4'    16.186000   -9.660000  104.435000 H1   17 U       0.1174 ****
513 O4'    16.687000   -7.696000  104.333000 OS   17 U      -0.3548 ****
514 C1'    16.752000   -6.813000  103.223000 CT   17 U       0.0674 ****
515 H1'    15.798000   -6.297000  103.112000 H2   17 U       0.1824 ****
516 N1     17.726000   -5.674000  103.530000 N*   17 U       0.0418 ****
517 C6     19.083000   -5.795000  103.396000 CS   17 U      -0.1126 ****
518 H6     19.512000   -6.727000  103.058000 H4   17 U       0.2188 ****
519 C5     19.899000   -4.757000  103.624000 CS   17 U      -0.3635 ****
520 H5     20.977000   -4.875000  103.510000 HA   17 U       0.1811 ****
521 C4     19.371000   -3.477000  104.019000 C    17 U       0.5952 ****
522 O4     20.040000   -2.471000  104.250000 O    17 U      -0.5761 ****
523 N3     17.996000   -3.446000  104.130000 NA   17 U      -0.3549 ****
524 H3     17.548000   -2.497000  104.428000 H    17 U       0.3154 ****
525 C2     17.131000   -4.497000  103.902000 C    17 U       0.4687 ****
526 O2     15.924000   -4.372000  104.027000 O    17 U      -0.5477 ****
527 C3'    16.676000   -9.035000  102.386000 CT   17 U       0.2022 ****
528 H3'    17.304000   -9.780000  101.897000 H1   17 U       0.0615 ****
529 C2'    17.149000   -7.634000  101.995000 CT   17 U       0.0670 ****
530 H2'    17.959000   -7.712000  101.269000 H1   17 U       0.0972 ****
531 O2'    16.061000   -6.907000  101.417000 OH   17 U      -0.6139 ****
532 HO2'   16.396000   -6.037000  101.186000 HO   17 U       0.4186 ****
533 O3'    15.326000   -9.162000  101.963000 OS   17 U      -0.5246 ****
534 P      16.098000   -7.211000  100.825000 P    18 G       1.1662 ****
535 OP1    15.464000   -8.535000  100.639000 O2   18 G      -0.7760 ****
536 OP2    17.296000   -6.912000  100.009000 O2   18 G      -0.7760 ****
537 O5'    14.928000   -6.144000  100.599000 OS   18 G      -0.4989 ****
538 C5'    13.942000   -5.959000  101.633000 CI   18 G       0.0558 ****
539 H5'    14.433000   -5.636000  102.551000 H1   18 G       0.0679 ****
540 H5''   13.422000   -6.901000  101.812000 H1   18 G       0.0679 ****
541 C4'    12.933000   -4.905000  101.207000 CT   18 G       0.1065 ****
542 H4'    12.022000   -5.014000  101.795000 H1   18 G       0.1174 ****
543 O4'    13.447000   -3.587000  101.570000 OS   18 G      -0.3548 ****
544 C1'    13.901000   -2.905000  100.411000 CT   18 G       0.0191 ****
545 H1'    13.338000   -1.979000  100.289000 H2   18 G       0.2006 ****
546 N9     15.294000   -2.440000  100.664000 N*   18 G       0.0492 ****
547 C8     16.478000   -3.141000  100.566000 CP   18 G       0.1374 ****
548 H8     16.468000   -4.179000  100.269000 H5   18 G       0.1640 ****
549 N7     17.541000   -2.435000  100.862000 NB   18 G      -0.5709 ****
550 C5     17.032000   -1.181000  101.177000 CB   18 G       0.1744 ****
551 C6     17.696000    0.009000  101.576000 C    18 G       0.4770 ****
552 O6     18.900000    0.202000  101.737000 O    18 G      -0.5597 ****
553 N1     16.788000    1.052000  101.796000 NA   18 G      -0.4787 ****
554 H1     17.162000    1.934000  102.083000 H    18 G       0.3424 ****
555 C2     15.419000    0.960000  101.648000 CA   18 G       0.7657 ****
556 N2     14.724000    2.076000  101.908000 N2   18 G      -0.9672 ****
557 H21    15.093000    2.966000  102.209000 H    18 G       0.4364 ****
558 H22    13.720000    2.015000  101.810000 H    18 G       0.4364 ****
559 N3     14.799000   -0.155000  101.272000 NC   18 G      -0.6323 ****
560 C4     15.667000   -1.178000  101.054000 CB   18 G       0.1222 ****
561 C3'    12.666000   -4.808000   99.704000 CT   18 G       0.2022 ****
562 H3'    12.804000   -5.788000   99.246000 H1   18 G       0.0615 ****
563 C2'    13.768000   -3.861000   99.224000 CT   18 G       0.0670 ****
564 H2'    14.390000   -4.370000   98.488000 H1   18 G       0.0972 ****
565 O2'    13.176000   -2.704000   98.627000 OH   18 G      -0.6139 ****
566 HO2'   13.895000   -2.137000   98.340000 HO   18 G       0.4186 ****
567 O3'    11.422000   -4.244000   99.316000 OS   18 G      -0.5246 ****
568 P      12.951000   -2.857000   97.950000 P    19 U       1.1662 ****
569 OP1    11.689000   -3.583000   97.683000 O2   19 U      -0.7760 ****
570 OP2    14.153000   -3.290000   97.202000 O2   19 U      -0.7760 ****
571 O5'    12.611000   -1.312000   97.712000 OS   19 U      -0.4989 ****
572 C5'    11.844000   -0.605000   98.705000 CI   19 U       0.0558 ****
573 H5'    12.376000   -0.624000   99.656000 H1   19 U       0.0679 ****
574 H5''   10.872000   -1.083000   98.823000 H1   19 U       0.0679 ****
575 C4'    11.642000    0.839000   98.275000 CT   19 U       0.1065 ****
576 H4'    10.797000    1.265000   98.815000 H1   19 U       0.1174 ****
577 O4'    12.791000    1.627000   98.713000 OS   19 U      -0.3548 ****
578 C1'    13.621000    1.936000   97.603000 CT   19 U       0.0674 ****
579 H1'    13.693000    3.018000   97.492000 H2   19 U       0.1824 ****
580 N1     15.062000    1.525000   97.910000 N*   19 U       0.0418 ****
581 C6     15.517000    0.240000   97.776000 CS   19 U      -0.1126 ****
582 H6     14.848000   -0.538000   97.438000 H4   19 U       0.2188 ****
583 C5     16.801000   -0.070000   98.004000 CS   19 U      -0.3635 ****
584 H5     17.141000   -1.099000   97.890000 HA   19 U       0.1811 ****
585 C4     17.744000    0.943000   98.399000 C    19 U       0.5952 ****
586 O4     18.938000    0.753000   98.630000 O    19 U      -0.5761 ****
587 N3     17.200000    2.206000   98.510000 NA   19 U      -0.3549 ****
588 H3     17.876000    3.008000   98.808000 H    19 U       0.3154 ****
589 C2     15.885000    2.556000   98.282000 C    19 U       0.4687 ****
590 O2     15.496000    3.705000   98.407000 O    19 U      -0.5477 ****
591 C3'    11.568000    1.080000   96.766000 CT   19 U       0.2022 ****
592 H3'    11.153000    0.199000   96.277000 H1   19 U       0.0615 ****
593 C2'    13.040000    1.233000   96.375000 CT   19 U       0.0670 ****
594 H2'    13.306000    0.464000   95.649000 H1   19 U       0.0972 ****
595 O2'    13.248000    2.525000   95.797000 OH   19 U      -0.6139 ****
596 HO2'   14.178000    2.582000   95.566000 HO   19 U       0.4186 ****
597 O3'    10.891000    2.254000   96.343000 OS   19 U      -0.5246 ****
598 P      12.841000    2.485000   95.140000 P    20 U       1.1662 ****
599 OP1    11.387000    2.555000   94.873000 O2   20 U      -0.7760 ****
600 OP2    13.619000    1.471000   94.392000 O2   20 U      -0.7760 ****
601 O5'    13.390000    3.969000   94.902000 OS   20 U      -0.4989 ****
602 C5'    13.127000    4.978000   95.895000 CI   20 U       0.0558 ****
603 H5'    13.564000    4.674000   96.846000 H1   20 U       0.0679 ****
604 H5''   12.051000    5.100000   96.013000 H1   20 U       0.0679 ****
605 C4'    13.737000    6.302000   95.465000 CT   20 U       0.1065 ****
606 H4'    13.256000    7.117000   96.005000 H1   20 U       0.1174 ****
607 O4'    15.129000    6.345000   95.903000 OS   20 U      -0.3548 ****
608 C1'    15.995000    6.156000   94.793000 CT   20 U       0.0674 ****
609 H1'    16.640000    7.028000   94.682000 H2   20 U       0.1824 ****
610 N1     16.985000    5.031000   95.100000 N*   20 U       0.0418 ****
611 C6     16.674000    3.704000   94.966000 CS   20 U      -0.1126 ****
612 H6     15.691000    3.411000   94.628000 H4   20 U       0.2188 ****
613 C5     17.587000    2.750000   95.194000 CS   20 U      -0.3635 ****
614 H5     17.318000    1.700000   95.080000 HA   20 U       0.1811 ****
615 C4     18.928000    3.093000   95.589000 C    20 U       0.5952 ****
616 O4     19.830000    2.288000   95.820000 O    20 U      -0.5761 ****
617 N3     19.153000    4.450000   95.700000 NA   20 U      -0.3549 ****
618 H3     20.155000    4.759000   95.998000 H    20 U       0.3154 ****
619 C2     18.234000    5.454000   95.472000 C    20 U       0.4687 ****
620 O2     18.528000    6.632000   95.597000 O    20 U      -0.5477 ****
621 C3'    13.805000    6.544000   93.956000 CT   20 U       0.2022 ****
622 H3'    12.979000    6.028000   93.467000 H1   20 U       0.0615 ****
623 C2'    15.126000    5.878000   93.565000 CT   20 U       0.0670 ****
624 H2'    14.934000    5.088000   92.839000 H1   20 U       0.0972 ****
625 O2'    15.999000    6.853000   92.987000 OH   20 U      -0.6139 ****
626 HO2'   16.813000    6.399000   92.756000 HO   20 U       0.4186 ****
627 O3'    13.870000    7.898000   93.533000 OS   20 U      -0.5246 ****
628 P      15.627000    7.058000   92.292000 P    21 A       1.1662 ****
629 OP1    14.447000    7.908000   92.016000 O2   21 A      -0.7760 ****
630 OP2    15.735000    5.785000   91.545000 O2   21 A      -0.7760 ****
631 O5'    16.896000    8.005000   92.065000 OS   21 A      -0.4989 ****
632 C5'    17.216000    8.994000   93.061000 CI   21 A       0.0558 ****
633 H5'    17.410000    8.502000   94.014000 H1   21 A       0.0679 ****
634 H5''   16.378000    9.683000   93.172000 H1   21 A       0.0679 ****
635 C4'    18.451000    9.774000   92.641000 CT   21 A       0.1065 ****
636 H4'    18.486000   10.720000   93.182000 H1   21 A       0.1174 ****
637 O4'    19.640000    9.053000   93.088000 OS   21 A      -0.3548 ****
638 C1'    20.272000    8.425000   91.983000 CT   21 A       0.0394 ****
639 H1'    21.288000    8.805000   91.880000 H2   21 A       0.2007 ****
640 N9     20.488000    6.952000   92.290000 N*   21 A      -0.0251 ****
641 C8     19.640000    5.879000   92.208000 C5   21 A       0.2006 ****
642 H8     18.622000    6.020000   91.876000 H5   21 A       0.1553 ****
643 N7     20.199000    4.742000   92.498000 NB   21 A      -0.6073 ****
644 C5     21.514000    5.079000   92.794000 CB   21 A       0.0515 ****
645 C6     22.622000    4.314000   93.178000 CA   21 A       0.7009 ****
646 N6     22.582000    2.984000   93.339000 N2   21 A      -0.9019 ****
647 H61    23.414000    2.484000   93.617000 H    21 A       0.4115 ****
648 H62    21.721000    2.482000   93.180000 H    21 A       0.4115 ****
649 N1     23.775000    4.961000   93.393000 NC   21 A      -0.7615 ****
650 C2     23.808000    6.281000   93.233000 CQ   21 A       0.5875 ****
651 H2     24.727000    6.823000   93.401000 H5   21 A       0.0473 ****
652 N3     22.838000    7.103000   92.877000 NC   21 A      -0.6997 ****
653 C4     21.689000    6.425000   92.667000 CB   21 A       0.3053 ****
654 C3'    18.652000    9.941000   91.133000 CT   21 A       0.2022 ****
655 H3'    17.682000    9.957000   90.636000 H1   21 A       0.0615 ****
656 C2'    19.402000    8.664000   90.748000 CT   21 A       0.0670 ****
657 H2'    18.817000    8.105000   90.018000 H1   21 A       0.0972 ****
658 O2'    20.669000    9.008000   90.180000 OH   21 A      -0.6139 ****
659 HO2'   21.107000    8.184000   89.952000 HO   21 A       0.4186 ****
660 O3'    19.446000   11.043000   90.717000 OS   21 A      -0.5246 ****
661 P      20.450000    9.382000   89.482000 P    22 A       1.1662 ****
662 OP1    19.916000   10.735000   89.206000 O2   22 A      -0.7760 ****
663 OP2    19.853000    8.253000   88.735000 O2   22 A      -0.7760 ****
664 O5'    22.030000    9.493000   89.255000 OS   22 A      -0.4989 ****
665 C5'    22.834000   10.153000   90.251000 CI   22 A       0.0558 ****
666 H5'    22.731000    9.634000   91.204000 H1   22 A       0.0679 ****
667 H5''   22.501000   11.185000   90.362000 H1   22 A       0.0679 ****
668 C4'    24.294000   10.142000   89.831000 CT   22 A       0.1065 ****
669 H4'    24.834000   10.919000   90.372000 H1   22 A       0.1174 ****
670 O4'    24.905000    8.894000   90.278000 OS   22 A      -0.3548 ****
671 C1'    25.097000    8.023000   89.173000 CT   22 A       0.0394 ****
672 H1'    26.158000    7.794000   89.070000 H2   22 A       0.2007 ****
673 N9     24.483000    6.667000   89.480000 N*   22 A      -0.0251 ****
674 C8     23.190000    6.222000   89.398000 C5   22 A       0.2006 ****
675 H8     22.409000    6.891000   89.066000 H5   22 A       0.1553 ****
676 N7     23.046000    4.963000   89.688000 NB   22 A      -0.6073 ****
677 C5     24.335000    4.537000   89.984000 CB   22 A       0.0515 ****
678 C6     24.854000    3.294000   90.368000 CA   22 A       0.7009 ****
679 N6     24.102000    2.196000   90.529000 N2   22 A      -0.9019 ****
680 H61    24.532000    1.326000   90.807000 H    22 A       0.4115 ****
681 H62    23.105000    2.239000   90.370000 H    22 A       0.4115 ****
682 N1     26.174000    3.216000   90.583000 NC   22 A      -0.7615 ****
683 C2     26.915000    4.309000   90.423000 CQ   22 A       0.5875 ****
684 H2     27.981000    4.268000   90.591000 H5   22 A       0.0473 ****
685 N3     26.542000    5.524000   90.067000 NC   22 A      -0.6997 ****
686 C4     25.209000    5.575000   89.857000 CB   22 A       0.3053 ****
687 C3'    24.554000   10.174000   88.323000 CT   22 A       0.2022 ****
688 H3'    23.746000   10.711000   87.826000 H1   22 A       0.0615 ****
689 C2'    24.495000    8.695000   87.938000 CT   22 A       0.0670 ****
690 H2'    23.700000    8.540000   87.208000 H1   22 A       0.0972 ****
691 O2'    25.746000    8.299000   87.370000 OH   22 A      -0.6139 ****
692 HO2'   25.670000    7.370000   87.142000 HO   22 A       0.4186 ****
693 O3'    25.817000   10.672000   87.907000 OS   22 A      -0.5246 ****
694 P      25.750000    8.717000   86.710000 P    23 U       1.1662 ****
695 OP1    26.025000   10.147000   86.443000 O2   23 U      -0.7760 ****
696 OP2    24.637000    8.090000   85.962000 O2   23 U      -0.7760 ****
697 O5'    27.142000    7.965000   86.472000 OS   23 U      -0.4989 ****
698 C5'    28.178000    8.083000   87.465000 CI   23 U       0.0558 ****
699 H5'    27.816000    7.693000   88.416000 H1   23 U       0.0679 ****
700 H5''   28.451000    9.131000   87.583000 H1   23 U       0.0679 ****
701 C4'    29.403000    7.292000   87.035000 CT   23 U       0.1065 ****
702 H4'    30.278000    7.654000   87.575000 H1   23 U       0.1174 ****
703 O4'    29.249000    5.908000   87.473000 OS   23 U      -0.3548 ****
704 C1'    28.941000    5.078000   86.363000 CT   23 U       0.0674 ****
705 H1'    29.713000    4.317000   86.252000 H2   23 U       0.1824 ****
706 N1     27.688000    4.256000   86.670000 N*   23 U       0.0418 ****
707 C6     26.417000    4.751000   86.536000 CS   23 U      -0.1126 ****
708 H6     26.266000    5.766000   86.198000 H4   23 U       0.2188 ****
709 C5     25.344000    3.982000   86.764000 CS   23 U      -0.3635 ****
710 H5     24.342000    4.396000   86.650000 HA   23 U       0.1811 ****
711 C4     25.495000    2.605000   87.159000 C    23 U       0.5952 ****
712 O4     24.571000    1.826000   87.390000 O    23 U      -0.5761 ****
713 N3     26.807000    2.192000   87.270000 NA   23 U      -0.3549 ****
714 H3     26.971000    1.156000   87.568000 H    23 U       0.3154 ****
715 C2     27.930000    2.960000   87.042000 C    23 U       0.4687 ****
716 O2     29.055000    2.503000   87.167000 O    23 U      -0.5477 ****
717 C3'    29.634000    7.191000   85.526000 CT   23 U       0.2022 ****
718 H3'    29.239000    8.082000   85.037000 H1   23 U       0.0615 ****
719 C2'    28.788000    5.977000   85.135000 CT   23 U       0.0670 ****
720 H2'    28.033000    6.278000   84.409000 H1   23 U       0.0972 ****
721 O2'    29.630000    4.976000   84.557000 OH   23 U      -0.6139 ****
722 HO2'   29.066000    4.234000   84.326000 HO   23 U       0.4186 ****
723 O3'    30.965000    6.936000   85.103000 OS   23 U      -0.5246 ****
724 P      29.865000    5.310000   83.900000 P    24 U       1.1662 ****
725 OP1    30.869000    6.364000   83.633000 O2   24 U      -0.7760 ****
726 OP2    28.590000    5.383000   83.152000 O2   24 U      -0.7760 ****
727 O5'    30.630000    3.924000   83.662000 OS   24 U      -0.4989 ****
728 C5'    31.566000    3.464000   84.655000 CI   24 U       0.0558 ****
729 H5'    31.051000    3.332000   85.606000 H1   24 U       0.0679 ****
730 H5''   32.362000    4.199000   84.773000 H1   24 U       0.0679 ****
731 C4'    32.170000    2.137000   84.225000 CT   24 U       0.1065 ****
732 H4'    33.101000    1.969000   84.765000 H1   24 U       0.1174 ****
733 O4'    31.292000    1.055000   84.663000 OS   24 U      -0.3548 ****
734 C1'    30.584000    0.524000   83.553000 CT   24 U       0.0674 ****
735 H1'    30.822000   -0.534000   83.442000 H2   24 U       0.1824 ****
736 N1     29.085000    0.509000   83.860000 N*   24 U       0.0418 ****
737 C6     28.284000    1.611000   83.726000 CS   24 U      -0.1126 ****
738 H6     28.705000    2.547000   83.388000 H4   24 U       0.2188 ****
739 C5     26.965000    1.544000   83.954000 CS   24 U      -0.3635 ****
740 H5     26.346000    2.434000   83.840000 HA   24 U       0.1811 ****
741 C4     26.348000    0.304000   84.349000 C    24 U       0.5952 ****
742 O4     25.150000    0.147000   84.580000 O    24 U      -0.5761 ****
743 N3     27.229000   -0.752000   84.460000 NA   24 U      -0.3549 ****
744 H3     26.808000   -1.713000   84.758000 H    24 U       0.3154 ****
745 C2     28.589000   -0.713000   84.232000 C    24 U       0.4687 ****
746 O2     29.289000   -1.705000   84.357000 O    24 U      -0.5477 ****
747 C3'    32.309000    1.927000   82.716000 CT   24 U       0.2022 ****
748 H3'    32.457000    2.890000   82.227000 H1   24 U       0.0615 ****
749 C2'    30.942000    1.362000   82.325000 CT   24 U       0.0670 ****
750 H2'    30.468000    2.024000   81.599000 H1   24 U       0.0972 ****
751 O2'    31.109000    0.065000   81.747000 OH   24 U      -0.6139 ****
752 HO2'   30.233000   -0.254000   81.516000 HO   24 U       0.4186 ****
753 O3'    33.291000    0.994000   82.293000 OS   24 U      -0.5246 ****
754 P      31.487000    0.219000   81.090000 P    25 U       1.1662 ****
755 OP1    32.901000    0.564000   80.823000 O2   25 U      -0.7760 ****
756 OP2    30.453000    0.970000   80.342000 O2   25 U      -0.7760 ****
757 O5'    31.382000   -1.360000   80.852000 OS   25 U      -0.4989 ****
758 C5'    31.921000   -2.253000   81.845000 CI   25 U       0.0558 ****
759 H5'    31.416000   -2.086000   82.796000 H1   25 U       0.0679 ****
760 H5''   32.988000   -2.065000   81.963000 H1   25 U       0.0679 ****
761 C4'    31.712000   -3.696000   81.415000 CT   25 U       0.1065 ****
762 H4'    32.406000   -4.340000   81.955000 H1   25 U       0.1174 ****
763 O4'    30.390000   -4.132000   81.853000 OS   25 U      -0.3548 ****
764 C1'    29.506000   -4.197000   80.743000 CT   25 U       0.0674 ****
765 H1'    29.136000   -5.216000   80.632000 H2   25 U       0.1824 ****
766 N1     28.237000   -3.400000   81.050000 N*   25 U       0.0418 ****
767 C6     28.159000   -2.039000   80.916000 CS   25 U      -0.1126 ****
768 H6     29.018000   -1.479000   80.578000 H4   25 U       0.2188 ****
769 C5     27.012000   -1.383000   81.144000 CS   25 U      -0.3635 ****
770 H5     26.972000   -0.300000   81.030000 HA   25 U       0.1811 ****
771 C4     25.824000   -2.093000   81.539000 C    25 U       0.5952 ****
772 O4     24.731000   -1.578000   81.770000 O    25 U      -0.5761 ****
773 N3     25.994000   -3.458000   81.650000 NA   25 U      -0.3549 ****
774 H3     25.121000   -4.039000   81.948000 H    25 U       0.3154 ****
775 C2     27.160000   -4.160000   81.422000 C    25 U       0.4687 ****
776 O2     27.212000   -5.373000   81.547000 O    25 U      -0.5477 ****
777 C3'    31.716000   -3.947000   79.906000 CT   25 U       0.2022 ****
778 H3'    32.361000   -3.217000   79.417000 H1   25 U       0.0615 ****
779 C2'    30.260000   -3.684000   79.515000 CT   25 U       0.0670 ****
780 H2'    30.220000   -2.871000   78.789000 H1   25 U       0.0972 ****
781 O2'    29.700000   -4.866000   78.937000 OH   25 U      -0.6139 ****
782 HO2'   28.791000   -4.662000   78.706000 HO   25 U       0.4186 ****
783 O3'    32.039000   -5.264000   79.483000 OS   25 U      -0.5246 ****
784 P      29.980000   -4.765000   78.350000 P    26 C       1.1662 ****
785 OP1    31.385000   -5.189000   78.158000 O2   26 C      -0.7760 ****
786 OP2    29.501000   -3.621000   77.542000 O2   26 C      -0.7760 ****
787 O5'    29.103000   -6.082000   78.120000 OS   26 C      -0.4989 ****
788 C5'    29.073000   -7.090000   79.148000 CI   26 C       0.0558 ****
789 H5'    28.681000   -6.659000   80.069000 H1   26 C       0.0679 ****
790 H5''   30.083000   -7.462000   79.322000 H1   26 C       0.0679 ****
791 C4'    28.182000   -8.245000   78.718000 CT   26 C       0.1065 ****
792 H4'    28.431000   -9.132000   79.301000 H1   26 C       0.1174 ****
793 O4'    26.803000   -7.940000   79.087000 OS   26 C      -0.3548 ****
794 C1'    26.057000   -7.588000   77.931000 CT   26 C       0.0066 ****
795 H1'    25.227000   -8.284000   77.808000 H2   26 C       0.2029 ****
796 N1     25.386000   -6.283000   78.192000 N*   26 C      -0.0484 ****
797 C6     26.056000   -5.108000   78.048000 C4   26 C       0.0053 ****
798 H6     27.091000   -5.111000   77.739000 H4   26 C       0.1958 ****
799 C5     25.441000   -3.919000   78.286000 C4   26 C      -0.5215 ****
800 H5     25.993000   -2.986000   78.166000 HA   26 C       0.1928 ****
801 C4     24.071000   -3.968000   78.692000 CA   26 C       0.8185 ****
802 N4     23.414000   -2.850000   78.940000 N2   26 C      -0.9530 ****
803 H41    22.447000   -2.927000   79.224000 H    26 C       0.4234 ****
804 H42    23.874000   -1.957000   78.845000 H    26 C       0.4234 ****
805 N3     23.424000   -5.122000   78.830000 NC   26 C      -0.7584 ****
806 C2     24.056000   -6.301000   78.587000 C    26 C       0.7538 ****
807 O2     23.487000   -7.396000   78.705000 O    26 C      -0.6252 ****
808 C3'    28.124000   -8.516000   77.213000 CT   26 C       0.2022 ****
809 H3'    29.070000   -8.228000   76.755000 H1   26 C       0.0615 ****
810 C2'    27.019000   -7.568000   76.741000 CT   26 C       0.0670 ****
811 H2'    27.426000   -6.871000   76.009000 H1   26 C       0.0972 ****
812 O2'    25.964000   -8.325000   76.143000 OH   26 C      -0.6139 ****
813 HO2'   25.293000   -7.699000   75.861000 HO   26 C       0.4186 ****
814 O3'    27.754000   -9.829000   76.819000 OS   26 C      -0.5246 ****
815 P      26.148000   -8.535000   75.470000 P    27 U       1.1662 ****
816 OP1    27.051000   -9.677000   75.203000 O2   27 U      -0.7760 ****
817 OP2    26.401000   -7.283000   74.722000 O2   27 U      -0.7760 ****
818 O5'    24.669000   -9.097000   75.232000 OS   27 U      -0.4989 ****
819 C5'    24.082000   -9.958000   76.225000 CI   27 U       0.0558 ****
820 H5'    24.023000   -9.430000   77.176000 H1   27 U       0.0679 ****
821 H5''   24.697000  -10.850000   76.343000 H1   27 U       0.0679 ****
822 C4'    22.683000  -10.369000   75.795000 CT   27 U       0.1065 ****
823 H4'    22.385000  -11.268000   76.335000 H1   27 U       0.1174 ****
824 O4'    21.736000   -9.348000   76.233000 OS   27 U      -0.3548 ****
825 C1'    21.309000   -8.572000   75.123000 CT   27 U       0.0674 ****
826 H1'    20.228000   -8.659000   75.012000 H2   27 U       0.1824 ****
827 N1     21.505000   -7.086000   75.430000 N*   27 U       0.0418 ****
828 C6     22.710000   -6.448000   75.296000 CS   27 U      -0.1126 ****
829 H6     23.577000   -6.997000   74.958000 H4   27 U       0.2188 ****
830 C5     22.829000   -5.133000   75.524000 CS   27 U      -0.3635 ****
831 H5     23.797000   -4.646000   75.410000 HA   27 U       0.1811 ****
832 C4     21.689000   -4.348000   75.919000 C    27 U       0.5952 ****
833 O4     21.702000   -3.140000   76.150000 O    27 U      -0.5761 ****
834 N3     20.518000   -5.071000   76.030000 NA   27 U      -0.3549 ****
835 H3     19.627000   -4.519000   76.328000 H    27 U       0.3154 ****
836 C2     20.365000   -6.423000   75.802000 C    27 U       0.4687 ****
837 O2     19.285000   -6.976000   75.927000 O    27 U      -0.5477 ****
838 C3'    22.456000  -10.477000   74.286000 CT   27 U       0.2022 ****
839 H3'    23.388000  -10.760000   73.797000 H1   27 U       0.0615 ****
840 C2'    22.089000   -9.044000   73.895000 CT   27 U       0.0670 ****
841 H2'    22.811000   -8.669000   73.169000 H1   27 U       0.0972 ****
842 O2'    20.781000   -9.027000   73.317000 OH   27 U      -0.6139 ****
843 HO2'   20.588000   -8.115000   73.086000 HO   27 U       0.4186 ****
844 O3'    21.393000  -11.319000   73.863000 OS   27 U      -0.5246 ****
845 P      20.978000   -9.262000   72.725000 P    28 G       1.1662 ****
846 OP1    21.167000  -10.718000   72.539000 O2   28 G      -0.7760 ****
847 OP2    21.820000   -8.359000   71.909000 O2   28 G      -0.7760 ****
848 O5'    19.415000   -9.004000   72.499000 OS   28 G      -0.4989 ****
849 C5'    18.488000   -9.387000   73.533000 CI   28 G       0.0558 ****
850 H5'    18.723000   -8.848000   74.451000 H1   28 G       0.0679 ****
851 H5''   18.564000  -10.459000   73.712000 H1   28 G       0.0679 ****
852 C4'    17.067000   -9.051000   73.107000 CT   28 G       0.1065 ****
853 H4'    16.363000   -9.640000   73.695000 H1   28 G       0.1174 ****
854 O4'    16.780000   -7.667000   73.470000 OS   28 G      -0.3548 ****
855 C1'    16.789000   -6.848000   72.311000 CT   28 G       0.0191 ****
856 H1'    15.813000   -6.378000   72.189000 H2   28 G       0.2006 ****
857 N9     17.704000   -5.699000   72.564000 N*   28 G       0.0492 ****
858 C8     19.080000   -5.642000   72.466000 CP   28 G       0.1374 ****
859 H8     19.637000   -6.518000   72.169000 H5   28 G       0.1640 ****
860 N7     19.587000   -4.470000   72.762000 NB   28 G      -0.5709 ****
861 C5     18.476000   -3.696000   73.077000 CB   28 G       0.1744 ****
862 C6     18.386000   -2.336000   73.476000 C    28 G       0.4770 ****
863 O6     19.290000   -1.519000   73.637000 O    28 G      -0.5597 ****
864 N1     17.056000   -1.956000   73.696000 NA   28 G      -0.4787 ****
865 H1     16.889000   -1.013000   73.983000 H    28 G       0.3424 ****
866 C2     15.958000   -2.779000   73.548000 CA   28 G       0.7657 ****
867 N2     14.767000   -2.222000   73.808000 N2   28 G      -0.9672 ****
868 H21    14.592000   -1.274000   74.109000 H    28 G       0.4364 ****
869 H22    13.959000   -2.820000   73.710000 H    28 G       0.4364 ****
870 N3     16.045000   -4.052000   73.172000 NC   28 G      -0.6323 ****
871 C4     17.331000   -4.437000   72.954000 CB   28 G       0.1222 ****
872 C3'    16.790000   -9.116000   71.604000 CT   28 G       0.2022 ****
873 H3'    17.440000   -9.862000   71.146000 H1   28 G       0.0615 ****
874 C2'    17.198000   -7.722000   71.124000 CT   28 G       0.0670 ****
875 H2'    17.998000   -7.810000   70.388000 H1   28 G       0.0972 ****
876 O2'    16.072000   -7.074000   70.527000 OH   28 G      -0.6139 ****
877 HO2'   16.367000   -6.206000   70.240000 HO   28 G       0.4186 ****
878 O3'    15.440000   -9.321000   71.216000 OS   28 G      -0.5246 ****
879 P      16.159000   -7.229000   69.920000 P    29 C       1.1662 ****
880 OP1    15.541000   -8.560000   69.728000 O2   29 C      -0.7760 ****
881 OP2    17.358000   -6.916000   69.112000 O2   29 C      -0.7760 ****
882 O5'    14.978000   -6.175000   69.690000 OS   29 C      -0.4989 ****
883 C5'    13.984000   -6.003000   70.718000 CI   29 C       0.0558 ****
884 H5'    14.466000   -5.676000   71.639000 H1   29 C       0.0679 ****
885 H5''   13.474000   -6.951000   70.892000 H1   29 C       0.0679 ****
886 C4'    12.966000   -4.959000   70.288000 CT   29 C       0.1065 ****
887 H4'    12.053000   -5.080000   70.871000 H1   29 C       0.1174 ****
888 O4'    13.463000   -3.637000   70.657000 OS   29 C      -0.3548 ****
889 C1'    13.916000   -2.947000   69.501000 CT   29 C       0.0066 ****
890 H1'    13.344000   -2.028000   69.378000 H2   29 C       0.2029 ****
891 N1     15.302000   -2.467000   69.762000 N*   29 C      -0.0484 ****
892 C6     16.371000   -3.295000   69.618000 C4   29 C       0.0053 ****
893 H6     16.223000   -4.320000   69.309000 H4   29 C       0.1958 ****
894 C5     17.636000   -2.855000   69.856000 C4   29 C      -0.5215 ****
895 H5     18.481000   -3.533000   69.736000 HA   29 C       0.1928 ****
896 C4     17.780000   -1.491000   70.262000 CA   29 C       0.8185 ****
897 N4     18.979000   -0.998000   70.510000 N2   29 C      -0.9530 ****
898 H41    19.039000   -0.030000   70.794000 H    29 C       0.4234 ****
899 H42    19.799000   -1.580000   70.415000 H    29 C       0.4234 ****
900 N3     16.729000   -0.688000   70.400000 NC   29 C      -0.7584 ****
901 C2     15.472000   -1.148000   70.157000 C    29 C       0.7538 ****
902 O2     14.468000   -0.430000   70.275000 O    29 C      -0.6252 ****
903 C3'    12.707000   -4.863000   68.783000 CT   29 C       0.2022 ****
904 H3'    12.858000   -5.840000   68.325000 H1   29 C       0.0615 ****
905 C2'    13.800000   -3.902000   68.311000 CT   29 C       0.0670 ****
906 H2'    14.433000   -4.403000   67.579000 H1   29 C       0.0972 ****
907 O2'    13.199000   -2.751000   67.713000 OH   29 C      -0.6139 ****
908 HO2'   13.914000   -2.176000   67.431000 HO   29 C       0.4186 ****
909 O3'    11.458000   -4.312000   68.389000 OS   29 C      -0.5246 ****
910 P      13.179000   -2.928000   67.110000 P    30 C       1.1662 ****
911 OP1    11.940000   -3.714000   66.918000 O2   30 C      -0.7760 ****
912 OP2    14.357000   -3.312000   66.302000 O2   30 C      -0.7760 ****
913 O5'    12.755000   -1.402000   66.880000 OS   30 C      -0.4989 ****
914 C5'    12.011000   -0.721000   67.908000 CI   30 C       0.0558 ****
915 H5'    12.594000   -0.706000   68.829000 H1   30 C       0.0679 ****
916 H5''   11.070000   -1.243000   68.082000 H1   30 C       0.0679 ****
917 C4'    11.719000    0.707000   67.478000 CT   30 C       0.1065 ****
918 H4'    10.885000    1.099000   68.061000 H1   30 C       0.1174 ****
919 O4'    12.851000    1.552000   67.847000 OS   30 C      -0.3548 ****
920 C1'    13.605000    1.887000   66.691000 CT   30 C       0.0066 ****
921 H1'    13.620000    2.970000   66.568000 H2   30 C       0.2029 ****
922 N1     15.031000    1.542000   66.952000 N*   30 C      -0.0484 ****
923 C6     15.483000    0.268000   66.808000 C4   30 C       0.0053 ****
924 H6     14.805000   -0.514000   66.499000 H4   30 C       0.1958 ****
925 C5     16.785000   -0.045000   67.046000 C4   30 C      -0.5215 ****
926 H5     17.130000   -1.072000   66.926000 HA   30 C       0.1928 ****
927 C4     17.643000    1.025000   67.452000 CA   30 C       0.8185 ****
928 N4     18.919000    0.792000   67.700000 N2   30 C      -0.9530 ****
929 H41    19.492000    1.574000   67.984000 H    30 C       0.4234 ****
930 H42    19.294000   -0.140000   67.605000 H    30 C       0.4234 ****
931 N3     17.192000    2.268000   67.590000 NC   30 C      -0.7584 ****
932 C2     15.887000    2.561000   67.347000 C    30 C       0.7538 ****
933 O2     15.429000    3.707000   67.465000 O    30 C      -0.6252 ****
934 C3'    11.552000    0.929000   65.973000 CT   30 C       0.2022 ****
935 H3'    11.152000    0.025000   65.515000 H1   30 C       0.0615 ****
936 C2'    12.992000    1.146000   65.501000 CT   30 C       0.0670 ****
937 H2'    13.253000    0.382000   64.769000 H1   30 C       0.0972 ****
938 O2'    13.108000    2.440000   64.903000 OH   30 C      -0.6139 ****
939 HO2'   14.020000    2.538000   64.621000 HO   30 C       0.4186 ****
940 O3'    10.800000    2.066000   65.579000 OS   30 C      -0.5246 ****
941 P      12.975000    2.317000   64.295000 P    31 G       1.1662 ****
942 OP1    11.506000    2.334000   64.109000 O2   31 G      -0.7760 ****
943 OP2    13.750000    1.356000   63.479000 O2   31 G      -0.7760 ****
944 O5'    13.450000    3.828000   64.069000 OS   31 G      -0.4989 ****
945 C5'    13.202000    4.800000   65.103000 CI   31 G       0.0558 ****
946 H5'    13.702000    4.491000   66.021000 H1   31 G       0.0679 ****
947 H5''   12.129000    4.875000   65.282000 H1   31 G       0.0679 ****
948 C4'    13.734000    6.159000   64.677000 CT   31 G       0.1065 ****
949 H4'    13.251000    6.939000   65.265000 H1   31 G       0.1174 ****
950 O4'    15.145000    6.248000   65.040000 OS   31 G      -0.3548 ****
951 C1'    15.955000    6.123000   63.881000 CT   31 G       0.0191 ****
952 H1'    16.558000    7.023000   63.759000 H2   31 G       0.2006 ****
953 N9     16.963000    5.056000   64.134000 N*   31 G       0.0492 ****
954 C8     16.826000    3.686000   64.036000 CP   31 G       0.1374 ****
955 H8     15.880000    3.258000   63.739000 H5   31 G       0.1640 ****
956 N7     17.914000    3.019000   64.332000 NB   31 G      -0.5709 ****
957 C5     18.837000    4.009000   64.647000 CB   31 G       0.1744 ****
958 C6     20.196000    3.907000   65.046000 C    31 G       0.4770 ****
959 O6     20.878000    2.897000   65.207000 O    31 G      -0.5597 ****
960 N1     20.760000    5.170000   65.266000 NA   31 G      -0.4787 ****
961 H1     21.717000    5.202000   65.553000 H    31 G       0.3424 ****
962 C2     20.100000    6.373000   65.118000 CA   31 G       0.7657 ****
963 N2     20.819000    7.474000   65.378000 N2   31 G      -0.9672 ****
964 H21    21.782000    7.513000   65.679000 H    31 G       0.4364 ****
965 H22    20.341000    8.358000   65.280000 H    31 G       0.4364 ****
966 N3     18.828000    6.467000   64.742000 NC   31 G      -0.6323 ****
967 C4     18.265000    5.248000   64.524000 CB   31 G       0.1222 ****
968 C3'    13.709000    6.442000   63.174000 CT   31 G       0.2022 ****
969 H3'    12.879000    5.904000   62.716000 H1   31 G       0.0615 ****
970 C2'    15.032000    5.842000   62.694000 CT   31 G       0.0670 ****
971 H2'    14.832000    5.062000   61.958000 H1   31 G       0.0972 ****
972 O2'    15.832000    6.866000   62.097000 OH   31 G      -0.6139 ****
973 HO2'   16.649000    6.452000   61.810000 HO   31 G       0.4186 ****
974 O3'    13.696000    7.808000   62.786000 OS   31 G      -0.5246 ****
975 P      15.666000    6.802000   61.490000 P    32 C       1.1662 ****
976 OP1    14.435000    7.601000   61.298000 O2   32 C      -0.7760 ****
977 OP2    15.807000    5.570000   60.682000 O2   32 C      -0.7760 ****
978 O5'    16.876000    7.822000   61.260000 OS   32 C      -0.4989 ****
979 C5'    17.186000    8.782000   62.288000 CI   32 C       0.0558 ****
980 H5'    17.442000    8.258000   63.209000 H1   32 C       0.0679 ****
981 H5''   16.320000    9.421000   62.462000 H1   32 C       0.0679 ****
982 C4'    18.363000    9.642000   61.858000 CT   32 C       0.1065 ****
983 H4'    18.372000   10.564000   62.441000 H1   32 C       0.1174 ****
984 O4'    19.603000    8.964000   62.227000 OS   32 C      -0.3548 ****
985 C1'    20.221000    8.419000   61.071000 CT   32 C       0.0066 ****
986 H1'    21.212000    8.856000   60.948000 H2   32 C       0.2029 ****
987 N1     20.501000    6.979000   61.332000 N*   32 C      -0.0484 ****
988 C6     19.531000    6.037000   61.188000 C4   32 C       0.0053 ****
989 H6     18.537000    6.328000   60.879000 H4   32 C       0.1958 ****
990 C5     19.788000    4.723000   61.426000 C4   32 C      -0.5215 ****
991 H5     18.998000    3.982000   61.306000 HA   32 C       0.1928 ****
992 C4     21.118000    4.388000   61.832000 CA   32 C       0.8185 ****
993 N4     21.438000    3.132000   62.080000 N2   32 C      -0.9530 ****
994 H41    22.387000    2.936000   62.364000 H    32 C       0.4234 ****
995 H42    20.746000    2.402000   61.985000 H    32 C       0.4234 ****
996 N3     22.061000    5.316000   61.970000 NC   32 C      -0.7584 ****
997 C2     21.783000    6.624000   61.727000 C    32 C       0.7538 ****
998 O2     22.635000    7.518000   61.845000 O    32 C      -0.6252 ****
999 C3'    18.495000    9.886000   60.353000 CT   32 C       0.2022 ****
1000 H3'    17.507000    9.874000   59.895000 H1   32 C       0.0615 ****
1001 C2'    19.292000    8.668000   59.881000 CT   32 C       0.0670 ****
1002 H2'    18.707000    8.112000   59.149000 H1   32 C       0.0972 ****
1003 O2'    20.516000    9.101000   59.283000 OH   32 C      -0.6139 ****
1004 HO2'   20.985000    8.312000   59.001000 HO   32 C       0.4186 ****
1005 O3'    19.216000   11.044000   59.959000 OS   32 C      -0.5246 ****
1006 P      20.398000    9.353000   58.610000 P    33 U       1.1662 ****
1007 OP1    19.849000   10.702000   58.343000 O2   33 U      -0.7760 ****
1008 OP2    19.806000    8.221000   57.862000 O2   33 U      -0.7760 ****
1009 O5'    21.975000    9.480000   58.372000 OS   33 U      -0.4989 ****
1010 C5'    22.779000   10.144000   59.365000 CI   33 U       0.0558 ****
1011 H5'    22.688000    9.620000   60.316000 H1   33 U       0.0679 ****
1012 H5''   22.437000   11.172000   59.483000 H1   33 U       0.0679 ****
1013 C4'    24.237000   10.148000   58.935000 CT   33 U       0.1065 ****
1014 H4'    24.774000   10.928000   59.475000 H1   33 U       0.1174 ****
1015 O4'    24.862000    8.903000   59.373000 OS   33 U      -0.3548 ****
1016 C1'    25.055000    8.039000   58.263000 CT   33 U       0.0674 ****
1017 H1'    26.117000    7.821000   58.152000 H2   33 U       0.1824 ****
1018 N1     24.452000    6.667000   58.570000 N*   33 U       0.0418 ****
1019 C6     23.117000    6.390000   58.436000 CS   33 U      -0.1126 ****
1020 H6     22.438000    7.159000   58.098000 H4   33 U       0.2188 ****
1021 C5     22.636000    5.161000   58.664000 CS   33 U      -0.3635 ****
1022 H5     21.570000    4.963000   58.550000 HA   33 U       0.1811 ****
1023 C4     23.512000    4.088000   59.059000 C    33 U       0.5952 ****
1024 O4     23.162000    2.932000   59.290000 O    33 U      -0.5761 ****
1025 N3     24.837000    4.456000   59.170000 NA   33 U      -0.3549 ****
1026 H3     25.540000    3.677000   59.468000 H    33 U       0.3154 ****
1027 C2     25.362000    5.712000   58.942000 C    33 U       0.4687 ****
1028 O2     26.554000    5.941000   59.067000 O    33 U      -0.5477 ****
1029 C3'    24.486000   10.188000   57.426000 CT   33 U       0.2022 ****
1030 H3'    23.669000   10.720000   56.937000 H1   33 U       0.0615 ****
1031 C2'    24.438000    8.710000   57.035000 CT   33 U       0.0670 ****
1032 H2'    23.640000    8.551000   56.309000 H1   33 U       0.0972 ****
1033 O2'    25.689000    8.329000   56.457000 OH   33 U      -0.6139 ****
1034 HO2'   25.620000    7.399000   56.226000 HO   33 U       0.4186 ****
1035 O3'    25.741000   10.700000   57.003000 OS   33 U      -0.5246 ****
1036 P      25.705000    8.737000   55.800000 P    34 U       1.1662 ****
1037 OP1    25.972000   10.168000   55.533000 O2   34 U      -0.7760 ****
1038 OP2    24.595000    8.104000   55.052000 O2   34 U      -0.7760 ****
1039 O5'    27.100000    7.991000   55.562000 OS   34 U      -0.4989 ****
1040 C5'    28.136000    8.115000   56.555000 CI   34 U       0.0558 ****
1041 H5'    27.776000    7.724000   57.506000 H1   34 U       0.0679 ****
1042 H5''   28.404000    9.165000   56.673000 H1   34 U       0.0679 ****
1043 C4'    29.365000    7.331000   56.125000 CT   34 U       0.1065 ****
1044 H4'    30.238000    7.698000   56.665000 H1   34 U       0.1174 ****
1045 O4'    29.218000    5.946000   56.563000 OS   34 U      -0.3548 ****
1046 C1'    28.914000    5.114000   55.453000 CT   34 U       0.0674 ****
1047 H1'    29.690000    4.357000   55.342000 H2   34 U       0.1824 ****
1048 N1     27.665000    4.285000   55.760000 N*   34 U       0.0418 ****
1049 C6     26.392000    4.774000   55.626000 CS   34 U      -0.1126 ****
1050 H6     26.236000    5.788000   55.288000 H4   34 U       0.2188 ****
1051 C5     25.323000    3.999000   55.854000 CS   34 U      -0.3635 ****
1052 H5     24.319000    4.408000   55.740000 HA   34 U       0.1811 ****
1053 C4     25.481000    2.624000   56.249000 C    34 U       0.5952 ****
1054 O4     24.562000    1.839000   56.480000 O    34 U      -0.5761 ****
1055 N3     26.795000    2.217000   56.360000 NA   34 U      -0.3549 ****
1056 H3     26.965000    1.182000   56.658000 H    34 U       0.3154 ****
1057 C2     27.915000    2.991000   56.132000 C    34 U       0.4687 ****
1058 O2     29.042000    2.540000   56.257000 O    34 U      -0.5477 ****
1059 C3'    29.596000    7.231000   54.616000 CT   34 U       0.2022 ****
1060 H3'    29.196000    8.119000   54.127000 H1   34 U       0.0615 ****
1061 C2'    28.757000    6.013000   54.225000 CT   34 U       0.0670 ****
1062 H2'    28.000000    6.310000   53.499000 H1   34 U       0.0972 ****
1063 O2'    29.604000    5.016000   53.647000 OH   34 U      -0.6139 ****
1064 HO2'   29.044000    4.271000   53.416000 HO   34 U       0.4186 ****
1065 O3'    30.929000    6.983000   54.193000 OS   34 U      -0.5246 ****
1066 P      29.626000    5.313000   53.060000 P    35 C       1.1662 ****
1067 OP1    30.591000    6.418000   52.868000 O2   35 C      -0.7760 ****
1068 OP2    28.387000    5.346000   52.252000 O2   35 C      -0.7760 ****
1069 O5'    30.466000    3.970000   52.830000 OS   35 C      -0.4989 ****
1070 C5'    31.373000    3.529000   53.858000 CI   35 C       0.0558 ****
1071 H5'    30.818000    3.349000   54.779000 H1   35 C       0.0679 ****
1072 H5''   32.127000    4.296000   54.032000 H1   35 C       0.0679 ****
1073 C4'    32.058000    2.242000   53.428000 CT   35 C       0.1065 ****
1074 H4'    32.969000    2.103000   54.011000 H1   35 C       0.1174 ****
1075 O4'    31.213000    1.110000   53.797000 OS   35 C      -0.3548 ****
1076 C1'    30.585000    0.575000   52.641000 CT   35 C       0.0066 ****
1077 H1'    30.878000   -0.468000   52.518000 H2   35 C       0.2029 ****
1078 N1     29.120000    0.501000   52.902000 N*   35 C      -0.0484 ****
1079 C6     28.325000    1.594000   52.758000 C4   35 C       0.0053 ****
1080 H6     28.753000    2.537000   52.449000 H4   35 C       0.1958 ****
1081 C5     26.988000    1.524000   52.996000 C4   35 C      -0.5215 ****
1082 H5     26.365000    2.411000   52.876000 HA   35 C       0.1928 ****
1083 C4     26.469000    0.255000   53.402000 CA   35 C       0.8185 ****
1084 N4     25.180000    0.115000   53.650000 N2   35 C      -0.9530 ****
1085 H41    24.852000   -0.797000   53.934000 H    35 C       0.4234 ****
1086 H42    24.555000    0.903000   53.555000 H    35 C       0.4234 ****
1087 N3     27.254000   -0.810000   53.540000 NC   35 C      -0.7584 ****
1088 C2     28.589000   -0.719000   53.297000 C    35 C       0.7538 ****
1089 O2     29.353000   -1.688000   53.415000 O    35 C      -0.6252 ****
1090 C3'    32.281000    2.077000   51.923000 CT   35 C       0.2022 ****
1091 H3'    32.408000    3.057000   51.465000 H1   35 C       0.0615 ****
1092 C2'    30.963000    1.460000   51.451000 CT   35 C       0.0670 ****
1093 H2'    30.495000    2.117000   50.719000 H1   35 C       0.0972 ****
1094 O2'    31.219000    0.186000   50.853000 OH   35 C      -0.6139 ****
1095 HO2'   30.372000   -0.167000   50.571000 HO   35 C       0.4186 ****
1096 O3'    33.326000    1.200000   51.529000 OS   35 C      -0.5246 ****
1097 P      31.486000    0.269000   50.180000 P    36 U       1.1662 ****
1098 OP1    32.898000    0.621000   49.913000 O2   36 U      -0.7760 ****
1099 OP2    30.448000    1.014000   49.432000 O2   36 U      -0.7760 ****
1100 O5'    31.389000   -1.311000   49.942000 OS   36 U      -0.4989 ****
1101 C5'    31.933000   -2.201000   50.935000 CI   36 U       0.0558 ****
1102 H5'    31.427000   -2.036000   51.886000 H1   36 U       0.0679 ****
1103 H5''   32.999000   -2.007000   51.053000 H1   36 U       0.0679 ****
1104 C4'    31.732000   -3.645000   50.505000 CT   36 U       0.1065 ****
1105 H4'    32.428000   -4.286000   51.045000 H1   36 U       0.1174 ****
1106 O4'    30.411000   -4.088000   50.943000 OS   36 U      -0.3548 ****
1107 C1'    29.528000   -4.157000   49.833000 CT   36 U       0.0674 ****
1108 H1'    29.163000   -5.178000   49.722000 H2   36 U       0.1824 ****
1109 N1     28.255000   -3.367000   50.140000 N*   36 U       0.0418 ****
1110 C6     28.169000   -2.006000   50.006000 CS   36 U      -0.1126 ****
1111 H6     29.026000   -1.442000   49.668000 H4   36 U       0.2188 ****
1112 C5     27.020000   -1.357000   50.234000 CS   36 U      -0.3635 ****
1113 H5     26.974000   -0.274000   50.120000 HA   36 U       0.1811 ****
1114 C4     25.835000   -2.073000   50.629000 C    36 U       0.5952 ****
1115 O4     24.739000   -1.564000   50.860000 O    36 U      -0.5761 ****
1116 N3     26.012000   -3.437000   50.740000 NA   36 U      -0.3549 ****
1117 H3     25.142000   -4.023000   51.038000 H    36 U       0.3154 ****
1118 C2     27.181000   -4.133000   50.512000 C    36 U       0.4687 ****
1119 O2     27.241000   -5.345000   50.637000 O    36 U      -0.5477 ****
1120 C3'    31.737000   -3.896000   48.996000 CT   36 U       0.2022 ****
1121 H3'    32.378000   -3.163000   48.507000 H1   36 U       0.0615 ****
1122 C2'    30.280000   -3.641000   48.605000 CT   36 U       0.0670 ****
1123 H2'    30.235000   -2.828000   47.879000 H1   36 U       0.0972 ****
1124 O2'    29.726000   -4.826000   48.027000 OH   36 U      -0.6139 ****
1125 HO2'   28.815000   -4.626000   47.796000 HO   36 U       0.4186 ****
1126 O3'    32.066000   -5.211000   48.573000 OS   36 U      -0.5246 ****
1127 P      30.128000   -4.899000   47.370000 P    37 U       1.1662 ****
1128 OP1    31.507000   -5.365000   47.103000 O2   37 U      -0.7760 ****
1129 OP2    29.657000   -3.711000   46.622000 O2   37 U      -0.7760 ****
1130 O5'    29.193000   -6.175000   47.132000 OS   37 U      -0.4989 ****
1131 C5'    29.170000   -7.218000   48.125000 CI   37 U       0.0558 ****
1132 H5'    28.833000   -6.807000   49.076000 H1   37 U       0.0679 ****
1133 H5''   30.171000   -7.631000   48.243000 H1   37 U       0.0679 ****
1134 C4'    28.220000   -8.324000   47.695000 CT   37 U       0.1065 ****
1135 H4'    28.460000   -9.240000   48.235000 H1   37 U       0.1174 ****
1136 O4'    26.870000   -7.984000   48.133000 OS   37 U      -0.3548 ****
1137 C1'    26.089000   -7.566000   47.023000 CT   37 U       0.0674 ****
1138 H1'    25.230000   -8.227000   46.912000 H2   37 U       0.1824 ****
1139 N1     25.444000   -6.213000   47.330000 N*   37 U       0.0418 ****
1140 C6     26.107000   -5.021000   47.196000 CS   37 U      -0.1126 ****
1141 H6     27.133000   -5.009000   46.858000 H4   37 U       0.2188 ****
1142 C5     25.491000   -3.854000   47.424000 CS   37 U      -0.3635 ****
1143 H5     26.038000   -2.917000   47.310000 HA   37 U       0.1811 ****
1144 C4     24.107000   -3.816000   47.819000 C    37 U       0.5952 ****
1145 O4     23.460000   -2.795000   48.050000 O    37 U      -0.5761 ****
1146 N3     23.519000   -5.060000   47.930000 NA   37 U      -0.3549 ****
1147 H3     22.471000   -5.082000   48.228000 H    37 U       0.3154 ****
1148 C2     24.127000   -6.277000   47.702000 C    37 U       0.4687 ****
1149 O2     23.522000   -7.329000   47.827000 O    37 U      -0.5477 ****
1150 C3'    28.089000   -8.539000   46.186000 CT   37 U       0.2022 ****
1151 H3'    29.024000   -8.268000   45.697000 H1   37 U       0.0615 ****
1152 C2'    27.001000   -7.537000   45.795000 CT   37 U       0.0670 ****
1153 H2'    27.402000   -6.829000   45.069000 H1   37 U       0.0972 ****
1154 O2'    25.894000   -8.235000   45.217000 OH   37 U      -0.6139 ****
1155 HO2'   25.236000   -7.575000   44.986000 HO   37 U       0.4186 ****
1156 O3'    27.655000   -9.823000   45.763000 OS   37 U      -0.5246 ****
1157 P      26.193000   -8.513000   44.560000 P    38 U       1.1662 ****
1158 OP1    27.102000   -9.650000   44.293000 O2   38 U      -0.7760 ****
1159 OP2    26.439000   -7.259000   43.812000 O2   38 U      -0.7760 ****
1160 O5'    24.717000   -9.083000   44.322000 OS   38 U      -0.4989 ****
1161 C5'    24.134000   -9.947000   45.315000 CI   38 U       0.0558 ****
1162 H5'    24.073000   -9.419000   46.266000 H1   38 U       0.0679 ****
1163 H5''   24.754000  -10.836000   45.433000 H1   38 U       0.0679 ****
1164 C4'    22.737000  -10.366000   44.885000 CT   38 U       0.1065 ****
1165 H4'    22.444000  -11.266000   45.425000 H1   38 U       0.1174 ****
1166 O4'    21.784000   -9.350000   45.323000 OS   38 U      -0.3548 ****
1167 C1'    21.354000   -8.576000   44.213000 CT   38 U       0.0674 ****
1168 H1'    20.273000   -8.668000   44.102000 H2   38 U       0.1824 ****
1169 N1     21.542000   -7.089000   44.520000 N*   38 U       0.0418 ****
1170 C6     22.744000   -6.444000   44.386000 CS   38 U      -0.1126 ****
1171 H6     23.613000   -6.989000   44.048000 H4   38 U       0.2188 ****
1172 C5     22.856000   -5.129000   44.614000 CS   38 U      -0.3635 ****
1173 H5     23.822000   -4.636000   44.500000 HA   38 U       0.1811 ****
1174 C4     21.711000   -4.349000   45.009000 C    38 U       0.5952 ****
1175 O4     21.719000   -3.141000   45.240000 O    38 U      -0.5761 ****
1176 N3     20.545000   -5.078000   45.120000 NA   38 U      -0.3549 ****
1177 H3     19.650000   -4.531000   45.418000 H    38 U       0.3154 ****
1178 C2     20.399000   -6.432000   44.892000 C    38 U       0.4687 ****
1179 O2     19.321000   -6.990000   45.017000 O    38 U      -0.5477 ****
1180 C3'    22.511000  -10.475000   43.376000 CT   38 U       0.2022 ****
1181 H3'    23.444000  -10.753000   42.887000 H1   38 U       0.0615 ****
1182 C2'    22.136000   -9.044000   42.985000 CT   38 U       0.0670 ****
1183 H2'    22.856000   -8.665000   42.259000 H1   38 U       0.0972 ****
1184 O2'    20.828000   -9.033000   42.407000 OH   38 U      -0.6139 ****
1185 HO2'   20.631000   -8.123000   42.176000 HO   38 U       0.4186 ****
1186 O3'    21.452000  -11.322000   42.953000 OS   38 U      -0.5246 ****
1187 P      20.920000   -9.448000   41.712000 P    39 A       1.1662 ****
1188 OP1    21.063000  -10.895000   41.436000 O2   39 A      -0.7760 ****
1189 OP2    21.804000   -8.525000   40.965000 O2   39 A      -0.7760 ****
1190 O5'    19.371000   -9.122000   41.485000 OS   39 A      -0.4989 ****
1191 C5'    18.417000   -9.537000   42.481000 CI   39 A       0.0558 ****
1192 H5'    18.658000   -9.065000   43.434000 H1   39 A       0.0679 ****
1193 H5''   18.454000  -10.620000   42.592000 H1   39 A       0.0679 ****
1194 C4'    17.015000   -9.126000   42.061000 CT   39 A       0.1065 ****
1195 H4'    16.283000   -9.725000   42.602000 H1   39 A       0.1174 ****
1196 O4'    16.770000   -7.758000   42.508000 OS   39 A      -0.3548 ****
1197 C1'    16.823000   -6.867000   41.403000 CT   39 A       0.0394 ****
1198 H1'    15.866000   -6.357000   41.300000 H2   39 A       0.2007 ****
1199 N9     17.785000   -5.731000   41.710000 N*   39 A      -0.0251 ****
1200 C8     19.151000   -5.658000   41.628000 C5   39 A       0.2006 ****
1201 H8     19.719000   -6.515000   41.296000 H5   39 A       0.1553 ****
1202 N7     19.635000   -4.487000   41.918000 NB   39 A      -0.6073 ****
1203 C5     18.512000   -3.723000   42.214000 CB   39 A       0.0515 ****
1204 C6     18.353000   -2.386000   42.598000 CA   39 A       0.7009 ****
1205 N6     19.377000   -1.536000   42.759000 N2   39 A      -0.9019 ****
1206 H61    19.201000   -0.582000   43.037000 H    39 A       0.4115 ****
1207 H62    20.323000   -1.851000   42.600000 H    39 A       0.4115 ****
1208 N1     17.105000   -1.950000   42.813000 NC   39 A      -0.7615 ****
1209 C2     16.093000   -2.798000   42.653000 CQ   39 A       0.5875 ****
1210 H2     15.079000   -2.466000   42.821000 H5   39 A       0.0473 ****
1211 N3     16.118000   -4.069000   42.297000 NC   39 A      -0.6997 ****
1212 C4     17.386000   -4.482000   42.087000 CB   39 A       0.3053 ****
1213 C3'    16.757000   -9.085000   40.553000 CT   39 A       0.2022 ****
1214 H3'    17.386000   -9.823000   40.056000 H1   39 A       0.0615 ****
1215 C2'    17.219000   -7.679000   40.168000 CT   39 A       0.0670 ****
1216 H2'    18.025000   -7.748000   39.438000 H1   39 A       0.0972 ****
1217 O2'    16.123000   -6.955000   39.600000 OH   39 A      -0.6139 ****
1218 HO2'   16.451000   -6.082000   39.372000 HO   39 A       0.4186 ****
1219 O3'    15.405000   -9.218000   40.137000 OS   39 A      -0.5246 ****
1220 P      16.196000   -7.260000   39.010000 P    40 C       1.1662 ****
1221 OP1    15.585000   -8.594000   38.818000 O2   40 C      -0.7760 ****
1222 OP2    17.394000   -6.940000   38.202000 O2   40 C      -0.7760 ****
1223 O5'    15.010000   -6.211000   38.780000 OS   40 C      -0.4989 ****
1224 C5'    14.016000   -6.045000   39.808000 CI   40 C       0.0558 ****
1225 H5'    14.496000   -5.715000   40.729000 H1   40 C       0.0679 ****
1226 H5''   13.510000   -6.995000   39.982000 H1   40 C       0.0679 ****
1227 C4'    12.992000   -5.006000   39.378000 CT   40 C       0.1065 ****
1228 H4'    12.080000   -5.132000   39.961000 H1   40 C       0.1174 ****
1229 O4'    13.482000   -3.681000   39.747000 OS   40 C      -0.3548 ****
1230 C1'    13.932000   -2.990000   38.591000 CT   40 C       0.0066 ****
1231 H1'    13.355000   -2.073000   38.468000 H2   40 C       0.2029 ****
1232 N1     15.315000   -2.502000   38.852000 N*   40 C      -0.0484 ****
1233 C6     16.389000   -3.325000   38.708000 C4   40 C       0.0053 ****
1234 H6     16.246000   -4.350000   38.399000 H4   40 C       0.1958 ****
1235 C5     17.651000   -2.878000   38.946000 C4   40 C      -0.5215 ****
1236 H5     18.499000   -3.551000   38.826000 HA   40 C       0.1928 ****
1237 C4     17.788000   -1.513000   39.352000 CA   40 C       0.8185 ****
1238 N4     18.984000   -1.014000   39.600000 N2   40 C      -0.9530 ****
1239 H41    19.039000   -0.046000   39.884000 H    40 C       0.4234 ****
1240 H42    19.807000   -1.591000   39.505000 H    40 C       0.4234 ****
1241 N3     16.732000   -0.716000   39.490000 NC   40 C      -0.7584 ****
1242 C2     15.478000   -1.182000   39.247000 C    40 C       0.7538 ****
1243 O2     14.470000   -0.470000   39.365000 O    40 C      -0.6252 ****
1244 C3'    12.732000   -4.911000   37.873000 CT   40 C       0.2022 ****
1245 H3'    12.889000   -5.887000   37.415000 H1   40 C       0.0615 ****
1246 C2'    13.821000   -3.945000   37.401000 CT   40 C       0.0670 ****
1247 H2'    14.456000   -4.443000   36.669000 H1   40 C       0.0972 ****
1248 O2'    13.214000   -2.797000   36.803000 OH   40 C      -0.6139 ****
1249 HO2'   13.926000   -2.218000   36.521000 HO   40 C       0.4186 ****
1250 O3'    11.481000   -4.367000   37.479000 OS   40 C      -0.5246 ****
1251 P      12.960000   -2.951000   36.092000 P    41 A       1.1662 ****
1252 OP1    11.704000   -3.684000   35.816000 O2   41 A      -0.7760 ****
1253 OP2    14.167000   -3.371000   35.345000 O2   41 A      -0.7760 ****
1254 O5'    12.611000   -1.407000   35.865000 OS   41 A      -0.4989 ****
1255 C5'    11.837000   -0.712000   36.861000 CI   41 A       0.0558 ****
1256 H5'    12.366000   -0.735000   37.814000 H1   41 A       0.0679 ****
1257 H5''   10.868000   -1.197000   36.972000 H1   41 A       0.0679 ****
1258 C4'    11.627000    0.734000   36.441000 CT   41 A       0.1065 ****
1259 H4'    10.778000    1.150000   36.982000 H1   41 A       0.1174 ****
1260 O4'    12.769000    1.526000   36.888000 OS   41 A      -0.3548 ****
1261 C1'    13.601000    1.848000   35.783000 CT   41 A       0.0394 ****
1262 H1'    13.666000    2.931000   35.680000 H2   41 A       0.2007 ****
1263 N9     15.034000    1.446000   36.090000 N*   41 A      -0.0251 ****
1264 C8     15.669000    0.235000   36.008000 C5   41 A       0.2006 ****
1265 H8     15.127000   -0.638000   35.676000 H5   41 A       0.1553 ****
1266 N7     16.936000    0.283000   36.298000 NB   41 A      -0.6073 ****
1267 C5     17.162000    1.622000   36.594000 CB   41 A       0.0515 ****
1268 C6     18.312000    2.323000   36.978000 CA   41 A       0.7009 ****
1269 N6     19.511000    1.746000   37.139000 N2   41 A      -0.9019 ****
1270 H61    20.306000    2.302000   37.417000 H    41 A       0.4115 ****
1271 H62    19.619000    0.754000   36.980000 H    41 A       0.4115 ****
1272 N1     18.189000    3.640000   37.193000 NC   41 A      -0.7615 ****
1273 C2     16.997000    4.207000   37.033000 CQ   41 A       0.5875 ****
1274 H2     16.876000    5.267000   37.201000 H5   41 A       0.0473 ****
1275 N3     15.852000    3.654000   36.677000 NC   41 A      -0.6997 ****
1276 C4     16.004000    2.329000   36.467000 CB   41 A       0.3053 ****
1277 C3'    11.557000    0.985000   34.933000 CT   41 A       0.2022 ****
1278 H3'    11.148000    0.105000   34.436000 H1   41 A       0.0615 ****
1279 C2'    13.028000    1.151000   34.548000 CT   41 A       0.0670 ****
1280 H2'    13.301000    0.389000   33.818000 H1   41 A       0.0972 ****
1281 O2'    13.230000    2.448000   33.980000 OH   41 A      -0.6139 ****
1282 HO2'   14.160000    2.513000   33.752000 HO   41 A       0.4186 ****
1283 O3'    10.873000    2.159000   34.517000 OS   41 A      -0.5246 ****
1284 P      12.816000    2.389000   33.320000 P    42 U       1.1662 ****
1285 OP1    11.361000    2.444000   33.053000 O2   42 U      -0.7760 ****
1286 OP2    13.604000    1.383000   32.572000 O2   42 U      -0.7760 ****
1287 O5'    13.349000    3.878000   33.082000 OS   42 U      -0.4989 ****
1288 C5'    13.076000    4.884000   34.075000 CI   42 U       0.0558 ****
1289 H5'    13.516000    4.586000   35.026000 H1   42 U       0.0679 ****
1290 H5''   11.998000    4.996000   34.193000 H1   42 U       0.0679 ****
1291 C4'    13.672000    6.215000   33.645000 CT   42 U       0.1065 ****
1292 H4'    13.182000    7.025000   34.185000 H1   42 U       0.1174 ****
1293 O4'    15.063000    6.272000   34.083000 OS   42 U      -0.3548 ****
1294 C1'    15.930000    6.093000   32.973000 CT   42 U       0.0674 ****
1295 H1'    16.566000    6.971000   32.862000 H2   42 U       0.1824 ****
1296 N1     16.933000    4.978000   33.280000 N*   42 U       0.0418 ****
1297 C6     16.636000    3.648000   33.146000 CS   42 U      -0.1126 ****
1298 H6     15.655000    3.345000   32.808000 H4   42 U       0.2188 ****
1299 C5     17.558000    2.703000   33.374000 CS   42 U      -0.3635 ****
1300 H5     17.300000    1.651000   33.260000 HA   42 U       0.1811 ****
1301 C4     18.896000    3.060000   33.769000 C    42 U       0.5952 ****
1302 O4     19.806000    2.266000   34.000000 O    42 U      -0.5761 ****
1303 N3     19.106000    4.420000   33.880000 NA   42 U      -0.3549 ****
1304 H3     20.105000    4.739000   34.178000 H    42 U       0.3154 ****
1305 C2     18.177000    5.415000   33.652000 C    42 U       0.4687 ****
1306 O2     18.459000    6.595000   33.777000 O    42 U      -0.5477 ****
1307 C3'    13.737000    6.458000   32.136000 CT   42 U       0.2022 ****
1308 H3'    12.917000    5.933000   31.647000 H1   42 U       0.0615 ****
1309 C2'    15.065000    5.806000   31.745000 CT   42 U       0.0670 ****
1310 H2'    14.881000    5.013000   31.019000 H1   42 U       0.0972 ****
1311 O2'    15.927000    6.790000   31.167000 OH   42 U      -0.6139 ****
1312 HO2'   16.746000    6.344000   30.936000 HO   42 U       0.4186 ****
1313 O3'    13.788000    7.813000   31.713000 OS   42 U      -0.5246 ****
1314 P      15.562000    6.972000   30.510000 P    43 U       1.1662 ****
1315 OP1    14.368000    7.804000   30.243000 O2   43 U      -0.7760 ****
1316 OP2    15.682000    5.700000   29.762000 O2   43 U      -0.7760 ****
1317 O5'    16.815000    7.937000   30.272000 OS   43 U      -0.4989 ****
1318 C5'    17.129000    8.932000   31.265000 CI   43 U       0.0558 ****
1319 H5'    17.338000    8.443000   32.216000 H1   43 U       0.0679 ****
1320 H5''   16.282000    9.608000   31.383000 H1   43 U       0.0679 ****
1321 C4'    18.349000    9.729000   30.835000 CT   43 U       0.1065 ****
1322 H4'    18.374000   10.676000   31.375000 H1   43 U       0.1174 ****
1323 O4'    19.551000    9.026000   31.273000 OS   43 U      -0.3548 ****
1324 C1'    20.184000    8.406000   30.163000 CT   43 U       0.0674 ****
1325 H1'    21.194000    8.802000   30.052000 H2   43 U       0.1824 ****
1326 N1     20.426000    6.927000   30.470000 N*   43 U       0.0418 ****
1327 C6     19.457000    5.968000   30.336000 CS   43 U      -0.1126 ****
1328 H6     18.468000    6.243000   29.998000 H4   43 U       0.2188 ****
1329 C5     19.723000    4.675000   30.564000 CS   43 U      -0.3635 ****
1330 H5     18.937000    3.928000   30.450000 HA   43 U       0.1811 ****
1331 C4     21.041000    4.252000   30.959000 C    43 U       0.5952 ****
1332 O4     21.378000    3.092000   31.190000 O    43 U      -0.5761 ****
1333 N3     21.953000    5.283000   31.070000 NA   43 U      -0.3549 ****
1334 H3     22.966000    5.012000   31.368000 H    43 U       0.3154 ****
1335 C2     21.708000    6.622000   30.842000 C    43 U       0.4687 ****
1336 O2     22.583000    7.463000   30.967000 O    43 U      -0.5477 ****
1337 C3'    18.535000    9.898000   29.326000 CT   43 U       0.2022 ****
1338 H3'    17.561000    9.900000   28.837000 H1   43 U       0.0615 ****
1339 C2'    19.301000    8.633000   28.935000 CT   43 U       0.0670 ****
1340 H2'    18.718000    8.065000   28.209000 H1   43 U       0.0972 ****
1341 O2'    20.558000    8.994000   28.357000 OH   43 U      -0.6139 ****
1342 HO2'   21.006000    8.177000   28.126000 HO   43 U       0.4186 ****
1343 O3'    19.310000   11.011000   28.903000 OS   43 U      -0.5246 ****
1344 P      20.296000    9.137000   27.770000 P    44 C       1.1662 ****
1345 OP1    19.686000   10.471000   27.578000 O2   44 C      -0.7760 ****
1346 OP2    19.756000    8.021000   26.962000 O2   44 C      -0.7760 ****
1347 O5'    21.865000    9.350000   27.540000 OS   44 C      -0.4989 ****
1348 C5'    22.641000    9.994000   28.568000 CI   44 C       0.0558 ****
1349 H5'    22.577000    9.415000   29.489000 H1   44 C       0.0679 ****
1350 H5''   22.252000   10.998000   28.742000 H1   44 C       0.0679 ****
1351 C4'    24.096000   10.090000   28.138000 CT   44 C       0.1065 ****
1352 H4'    24.597000   10.863000   28.721000 H1   44 C       0.1174 ****
1353 O4'    24.779000    8.853000   28.507000 OS   44 C      -0.3548 ****
1354 C1'    25.009000    8.061000   27.351000 CT   44 C       0.0066 ****
1355 H1'    26.080000    7.899000   27.228000 H2   44 C       0.2029 ****
1356 N1     24.474000    6.695000   27.612000 N*   44 C      -0.0484 ****
1357 C6     23.150000    6.420000   27.468000 C4   44 C       0.0053 ****
1358 H6     22.467000    7.198000   27.159000 H4   44 C       0.1958 ****
1359 C5     22.663000    5.173000   27.706000 C4   44 C      -0.5215 ****
1360 H5     21.599000    4.970000   27.586000 HA   44 C       0.1928 ****
1361 C4     23.607000    4.177000   28.112000 CA   44 C       0.8185 ****
1362 N4     23.203000    2.945000   28.360000 N2   44 C      -0.9530 ****
1363 H41    23.900000    2.272000   28.644000 H    44 C       0.4234 ****
1364 H42    22.228000    2.700000   28.265000 H    44 C       0.4234 ****
1365 N3     24.900000    4.455000   28.250000 NC   44 C      -0.7584 ****
1366 C2     25.366000    5.709000   28.007000 C    44 C       0.7538 ****
1367 O2     26.564000    6.007000   28.125000 O    44 C      -0.6252 ****
1368 C3'    24.338000   10.225000   26.633000 CT   44 C       0.2022 ****
1369 H3'    23.497000   10.744000   26.175000 H1   44 C       0.0615 ****
1370 C2'    24.358000    8.770000   26.161000 CT   44 C       0.0670 ****
1371 H2'    23.566000    8.614000   25.429000 H1   44 C       0.0972 ****
1372 O2'    25.624000    8.479000   25.563000 OH   44 C      -0.6139 ****
1373 HO2'   25.597000    7.562000   25.281000 HO   44 C       0.4186 ****
1374 O3'    25.567000   10.816000   26.239000 OS   44 C      -0.5246 ****
1375 P      25.659000    8.756000   24.890000 P    45 U       1.1662 ****
1376 OP1    25.919000   10.188000   24.623000 O2   45 U      -0.7760 ****
1377 OP2    24.553000    8.117000   24.142000 O2   45 U      -0.7760 ****
1378 O5'    27.058000    8.018000   24.652000 OS   45 U      -0.4989 ****
1379 C5'    28.093000    8.147000   25.645000 CI   45 U       0.0558 ****
1380 H5'    27.735000    7.754000   26.596000 H1   45 U       0.0679 ****
1381 H5''   28.355000    9.199000   25.763000 H1   45 U       0.0679 ****
1382 C4'    29.326000    7.370000   25.215000 CT   45 U       0.1065 ****
1383 H4'    30.197000    7.741000   25.755000 H1   45 U       0.1174 ****
1384 O4'    29.187000    5.984000   25.653000 OS   45 U      -0.3548 ****
1385 C1'    28.887000    5.151000   24.543000 CT   45 U       0.0674 ****
1386 H1'    29.667000    4.397000   24.432000 H2   45 U       0.1824 ****
1387 N1     27.643000    4.315000   24.850000 N*   45 U       0.0418 ****
1388 C6     26.367000    4.797000   24.716000 CS   45 U      -0.1126 ****
1389 H6     26.206000    5.810000   24.378000 H4   45 U       0.2188 ****
1390 C5     25.302000    4.017000   24.944000 CS   45 U      -0.3635 ****
1391 H5     24.296000    4.421000   24.830000 HA   45 U       0.1811 ****
1392 C4     25.467000    2.642000   25.339000 C    45 U       0.5952 ****
1393 O4     24.552000    1.853000   25.570000 O    45 U      -0.5761 ****
1394 N3     26.783000    2.242000   25.450000 NA   45 U      -0.3549 ****
1395 H3     26.959000    1.208000   25.748000 H    45 U       0.3154 ****
1396 C2     27.899000    3.021000   25.222000 C    45 U       0.4687 ****
1397 O2     29.028000    2.577000   25.347000 O    45 U      -0.5477 ****
1398 C3'    29.558000    7.271000   23.706000 CT   45 U       0.2022 ****
1399 H3'    29.154000    8.157000   23.217000 H1   45 U       0.0615 ****
1400 C2'    28.725000    6.048000   23.315000 CT   45 U       0.0670 ****
1401 H2'    27.966000    6.341000   22.589000 H1   45 U       0.0972 ****
1402 O2'    29.577000    5.055000   22.737000 OH   45 U      -0.6139 ****
1403 HO2'   29.021000    4.308000   22.506000 HO   45 U       0.4186 ****
1404 O3'    30.892000    7.030000   23.283000 OS   45 U      -0.5246 ****
1405 P      29.829000    5.397000   22.042000 P    46 A       1.1662 ****
1406 OP1    30.826000    6.456000   21.766000 O2   46 A      -0.7760 ****
1407 OP2    28.553000    5.457000   21.295000 O2   46 A      -0.7760 ****
1408 O5'    30.603000    4.015000   21.815000 OS   46 A      -0.4989 ****
1409 C5'    31.542000    3.569000   22.811000 CI   46 A       0.0558 ****
1410 H5'    31.028000    3.441000   23.764000 H1   46 A       0.0679 ****
1411 H5''   32.334000    4.310000   22.922000 H1   46 A       0.0679 ****
1412 C4'    32.154000    2.242000   22.391000 CT   46 A       0.1065 ****
1413 H4'    33.087000    2.085000   22.932000 H1   46 A       0.1174 ****
1414 O4'    31.284000    1.159000   22.838000 OS   46 A      -0.3548 ****
1415 C1'    30.578000    0.614000   21.733000 CT   46 A       0.0394 ****
1416 H1'    30.823000   -0.444000   21.630000 H2   46 A       0.2007 ****
1417 N9     29.089000    0.592000   22.040000 N*   46 A      -0.0251 ****
1418 C8     28.137000    1.573000   21.958000 C5   46 A       0.2006 ****
1419 H8     28.409000    2.564000   21.626000 H5   46 A       0.1553 ****
1420 N7     26.936000    1.167000   22.248000 NB   46 A      -0.6073 ****
1421 C5     27.099000   -0.181000   22.544000 CB   46 A       0.0515 ****
1422 C6     26.196000   -1.179000   22.928000 CA   46 A       0.7009 ****
1423 N6     24.882000   -0.967000   23.089000 N2   46 A      -0.9019 ****
1424 H61    24.278000   -1.727000   23.367000 H    46 A       0.4115 ****
1425 H62    24.497000   -0.047000   22.930000 H    46 A       0.4115 ****
1426 N1     26.687000   -2.407000   23.143000 NC   46 A      -0.7615 ****
1427 C2     27.992000   -2.612000   22.983000 CQ   46 A       0.5875 ****
1428 H2     28.409000   -3.594000   23.151000 H5   46 A       0.0473 ****
1429 N3     28.932000   -1.758000   22.627000 NC   46 A      -0.6997 ****
1430 C4     28.411000   -0.530000   22.417000 CB   46 A       0.3053 ****
1431 C3'    32.293000    2.021000   20.883000 CT   46 A       0.2022 ****
1432 H3'    32.435000    2.981000   20.386000 H1   46 A       0.0615 ****
1433 C2'    30.929000    1.445000   20.498000 CT   46 A       0.0670 ****
1434 H2'    30.451000    2.098000   19.768000 H1   46 A       0.0972 ****
1435 O2'    31.104000    0.144000   19.930000 OH   46 A      -0.6139 ****
1436 HO2'   30.231000   -0.183000   19.702000 HO   46 A       0.4186 ****
1437 O3'    33.282000    1.090000   20.467000 OS   46 A      -0.5246 ****
1438 P      31.484000    0.318000   19.270000 P    47 U       1.1662 ****
1439 OP1    32.895000    0.678000   19.003000 O2   47 U      -0.7760 ****
1440 OP2    30.443000    1.058000   18.522000 O2   47 U      -0.7760 ****
1441 O5'    31.396000   -1.262000   19.032000 OS   47 U      -0.4989 ****
1442 C5'    31.944000   -2.149000   20.025000 CI   47 U       0.0558 ****
1443 H5'    31.437000   -1.987000   20.976000 H1   47 U       0.0679 ****
1444 H5''   33.009000   -1.949000   20.143000 H1   47 U       0.0679 ****
1445 C4'    31.751000   -3.594000   19.595000 CT   47 U       0.1065 ****
1446 H4'    32.450000   -4.231000   20.135000 H1   47 U       0.1174 ****
1447 O4'    30.433000   -4.044000   20.033000 OS   47 U      -0.3548 ****
1448 C1'    29.550000   -4.118000   18.923000 CT   47 U       0.0674 ****
1449 H1'    29.190000   -5.141000   18.812000 H2   47 U       0.1824 ****
1450 N1     28.272000   -3.334000   19.230000 N*   47 U       0.0418 ****
1451 C6     28.180000   -1.974000   19.096000 CS   47 U      -0.1126 ****
1452 H6     29.034000   -1.405000   18.758000 H4   47 U       0.2188 ****
1453 C5     27.027000   -1.331000   19.324000 CS   47 U      -0.3635 ****
1454 H5     26.975000   -0.248000   19.210000 HA   47 U       0.1811 ****
1455 C4     25.845000   -2.053000   19.719000 C    47 U       0.5952 ****
1456 O4     24.747000   -1.549000   19.950000 O    47 U      -0.5761 ****
1457 N3     26.030000   -3.416000   19.830000 NA   47 U      -0.3549 ****
1458 H3     25.163000   -4.006000   20.128000 H    47 U       0.3154 ****
1459 C2     27.203000   -4.106000   19.602000 C    47 U       0.4687 ****
1460 O2     27.268000   -5.318000   19.727000 O    47 U      -0.5477 ****
1461 C3'    31.757000   -3.845000   18.086000 CT   47 U       0.2022 ****
1462 H3'    32.394000   -3.109000   17.597000 H1   47 U       0.0615 ****
1463 C2'    30.299000   -3.597000   17.695000 CT   47 U       0.0670 ****
1464 H2'    30.249000   -2.785000   16.969000 H1   47 U       0.0972 ****
1465 O2'    29.751000   -4.785000   17.117000 OH   47 U      -0.6139 ****
1466 HO2'   28.840000   -4.591000   16.886000 HO   47 U       0.4186 ****
1467 O3'    32.093000   -5.159000   17.663000 OS   47 U      -0.5246 ****
1468 P      30.030000   -4.681000   16.530000 P    48 C       1.1662 ****
1469 OP1    31.439000   -5.090000   16.338000 O2   48 C      -0.7760 ****
1470 OP2    29.539000   -3.543000   15.722000 O2   48 C      -0.7760 ****
1471 O5'    29.166000   -6.008000   16.300000 OS   48 C      -0.4989 ****
1472 C5'    29.147000   -7.016000   17.328000 CI   48 C       0.0558 ****
1473 H5'    28.750000   -6.589000   18.249000 H1   48 C       0.0679 ****
1474 H5''   30.160000   -7.377000   17.502000 H1   48 C       0.0679 ****
1475 C4'    28.268000   -8.180000   16.898000 CT   48 C       0.1065 ****
1476 H4'    28.526000   -9.064000   17.481000 H1   48 C       0.1174 ****
1477 O4'    26.886000   -7.889000   17.267000 OS   48 C      -0.3548 ****
1478 C1'    26.136000   -7.545000   16.111000 CT   48 C       0.0066 ****
1479 H1'    25.314000   -8.250000   15.988000 H2   48 C       0.2029 ****
1480 N1     25.452000   -6.248000   16.372000 N*   48 C      -0.0484 ****
1481 C6     26.109000   -5.066000   16.228000 C4   48 C       0.0053 ****
1482 H6     27.144000   -5.057000   15.919000 H4   48 C       0.1958 ****
1483 C5     25.482000   -3.882000   16.466000 C4   48 C      -0.5215 ****
1484 H5     26.024000   -2.944000   16.346000 HA   48 C       0.1928 ****
1485 C4     24.112000   -3.946000   16.872000 CA   48 C       0.8185 ****
1486 N4     23.443000   -2.835000   17.120000 N2   48 C      -0.9530 ****
1487 H41    22.478000   -2.923000   17.404000 H    48 C       0.4234 ****
1488 H42    23.895000   -1.937000   17.025000 H    48 C       0.4234 ****
1489 N3     23.478000   -5.106000   17.010000 NC   48 C      -0.7584 ****
1490 C2     24.122000   -6.279000   16.767000 C    48 C       0.7538 ****
1491 O2     23.565000   -7.380000   16.885000 O    48 C      -0.6252 ****
1492 C3'    28.212000   -8.451000   15.393000 CT   48 C       0.2022 ****
1493 H3'    29.155000   -8.153000   14.935000 H1   48 C       0.0615 ****
1494 C2'    27.098000   -7.515000   14.921000 CT   48 C       0.0670 ****
1495 H2'    27.497000   -6.814000   14.189000 H1   48 C       0.0972 ****
1496 O2'    26.051000   -8.283000   14.323000 OH   48 C      -0.6139 ****
1497 HO2'   25.374000   -7.664000   14.041000 HO   48 C       0.4186 ****
1498 O3'    27.857000   -9.768000   14.999000 OS   48 C      -0.5246 ****
1499 P      26.237000   -8.491000   13.650000 P    49 U       1.1662 ****
1500 OP1    27.152000   -9.624000   13.383000 O2   49 U      -0.7760 ****
1501 OP2    26.477000   -7.236000   12.902000 O2   49 U      -0.7760 ****
1502 O5'    24.764000   -9.068000   13.412000 OS   49 U      -0.4989 ****
1503 C5'    24.186000   -9.936000   14.405000 CI   49 U       0.0558 ****
1504 H5'    24.122000   -9.408000   15.356000 H1   49 U       0.0679 ****
1505 H5''   24.810000  -10.822000   14.523000 H1   49 U       0.0679 ****
1506 C4'    22.792000  -10.362000   13.975000 CT   49 U       0.1065 ****
1507 H4'    22.503000  -11.263000   14.515000 H1   49 U       0.1174 ****
1508 O4'    21.833000   -9.351000   14.413000 OS   49 U      -0.3548 ****
1509 C1'    21.399000   -8.579000   13.303000 CT   49 U       0.0674 ****
1510 H1'    20.319000   -8.677000   13.192000 H2   49 U       0.1824 ****
1511 N1     21.579000   -7.091000   13.610000 N*   49 U       0.0418 ****
1512 C6     22.777000   -6.441000   13.476000 CS   49 U      -0.1126 ****
1513 H6     23.650000   -6.980000   13.138000 H4   49 U       0.2188 ****
1514 C5     22.883000   -5.124000   13.704000 CS   49 U      -0.3635 ****
1515 H5     23.846000   -4.627000   13.590000 HA   49 U       0.1811 ****
1516 C4     21.734000   -4.351000   14.099000 C    49 U       0.5952 ****
1517 O4     21.735000   -3.143000   14.330000 O    49 U      -0.5761 ****
1518 N3     20.572000   -5.086000   14.210000 NA   49 U      -0.3549 ****
1519 H3     19.674000   -4.544000   14.508000 H    49 U       0.3154 ****
1520 C2     20.433000   -6.440000   13.982000 C    49 U       0.4687 ****
1521 O2     19.358000   -7.004000   14.107000 O    49 U      -0.5477 ****
1522 C3'    22.565000  -10.472000   12.466000 CT   49 U       0.2022 ****
1523 H3'    23.500000  -10.745000   11.977000 H1   49 U       0.0615 ****
1524 C2'    22.184000   -9.043000   12.075000 CT   49 U       0.0670 ****
1525 H2'    22.902000   -8.660000   11.349000 H1   49 U       0.0972 ****
1526 O2'    20.876000   -9.039000   11.497000 OH   49 U      -0.6139 ****
1527 HO2'   20.673000   -8.130000   11.266000 HO   49 U       0.4186 ****
1528 O3'    21.511000  -11.324000   12.043000 OS   49 U      -0.5246 ****
1529 P      20.979000   -9.435000   10.840000 P    50 U3      1.1662 ****
1530 OP1    21.136000  -10.882000   10.573000 O2   50 U3     -0.7760 ****
1531 OP2    21.858000   -8.508000   10.092000 O2   50 U3     -0.7760 ****
1532 O5'    19.427000   -9.125000   10.602000 OS   50 U3     -0.4989 ****
1533 C5'    18.472000   -9.542000   11.595000 CI   50 U3      0.0558 ****
1534 H5'    18.703000   -9.063000   12.546000 H1   50 U3      0.0679 ****
1535 H5''   18.519000  -10.625000   11.713000 H1   50 U3      0.0679 ****
1536 C4'    17.068000   -9.147000   11.165000 CT   50 U3      0.1065 ****
1537 H4'    16.339000   -9.750000   11.705000 H1   50 U3      0.1174 ****
1538 O4'    16.808000   -7.779000   11.603000 OS   50 U3     -0.3548 ****
1539 C1'    16.859000   -6.894000   10.493000 CT   50 U3      0.0674 ****
1540 H1'    15.898000   -6.394000   10.382000 H2   50 U3      0.1824 ****
1541 N1     17.815000   -5.740000   10.800000 N*   50 U3      0.0418 ****
1542 C6     19.175000   -5.840000   10.666000 CS   50 U3     -0.1126 ****
1543 H6     19.618000   -6.765000   10.328000 H4   50 U3      0.2188 ****
1544 C5     19.974000   -4.789000   10.894000 CS   50 U3     -0.3635 ****
1545 H5     21.054000   -4.891000   10.780000 HA   50 U3      0.1811 ****
1546 C4     19.426000   -3.518000   11.289000 C    50 U3      0.5952 ****
1547 O4     20.079000   -2.501000   11.520000 O    50 U3     -0.5761 ****
1548 N3     18.050000   -3.508000   11.400000 NA   50 U3     -0.3549 ****
1549 H3     17.588000   -2.567000   11.698000 H    50 U3      0.3154 ****
1550 C2     17.202000   -4.572000   11.172000 C    50 U3      0.4687 ****
1551 O2     15.993000   -4.467000   11.297000 O    50 U3     -0.5477 ****
1552 C3'    16.818000   -9.118000    9.656000 CT   50 U3      0.2022 ****
1553 H3'    17.458000   -9.853000    9.167000 H1   50 U3      0.0615 ****
1554 C2'    17.269000   -7.709000    9.265000 CT   50 U3      0.0670 ****
1555 H2'    18.080000   -7.775000    8.539000 H1   50 U3      0.0972 ****
1556 O2'    16.170000   -6.999000    8.687000 OH   50 U3     -0.6139 ****
1557 HO2'   16.492000   -6.125000    8.456000 HO   50 U3      0.4186 ****
1558 O3'    15.471000   -9.266000    9.233000 OH   50 U3     -0.6541 ****
1559 HO3'   15.339000   -9.244000    8.283000 HO   50 U3      0.4376 ****
1560 HO5'    3.696000    8.541000    1.234000 HO   51 G5      0.4295 ****
1561 O5'     2.829000    8.931000    1.370000 OH   51 G5     -0.6223 ****
1562 C5'     2.268000    9.763000    0.337000 CI   51 G5      0.0558 ****
1563 H5'     2.166000    9.184000   -0.581000 H1   51 G5      0.0679 ****
1564 H5''    2.926000   10.614000    0.158000 H1   51 G5      0.0679 ****
1565 C4'     0.900000   10.269000    0.763000 CT   51 G5      0.1065 ****
1566 H4'     0.638000   11.149000    0.175000 H1   51 G5      0.1174 ****
1567 O4'    -0.105000    9.275000    0.400000 OS   51 G5     -0.3548 ****
1568 C1'    -0.551000    8.587000    1.559000 CT   51 G5      0.0191 ****
1569 H1'    -1.624000    8.736000    1.681000 H2   51 G5      0.2006 ****
1570 N9     -0.424000    7.124000    1.306000 N*   51 G5      0.0492 ****
1571 C8      0.690000    6.315000    1.402000 CP   51 G5      0.1374 ****
1572 H8      1.639000    6.737000    1.699000 H5   51 G5      0.1640 ****
1573 N7      0.464000    5.059000    1.107000 NB   51 G5     -0.5709 ****
1574 C5     -0.889000    5.029000    0.792000 CB   51 G5      0.1744 ****
1575 C6     -1.717000    3.947000    0.392000 C    51 G5      0.4770 ****
1576 O6     -1.416000    2.765000    0.231000 O    51 G5     -0.5597 ****
1577 N1     -3.035000    4.366000    0.173000 NA   51 G5     -0.4787 ****
1578 H1     -3.696000    3.672000   -0.114000 H    51 G5      0.3424 ****
1579 C2     -3.494000    5.658000    0.322000 CA   51 G5      0.7657 ****
1580 N2     -4.795000    5.853000    0.063000 N2   51 G5     -0.9672 ****
1581 H21    -5.465000    5.161000   -0.239000 H    51 G5      0.4364 ****
1582 H22    -5.137000    6.798000    0.161000 H    51 G5      0.4364 ****
1583 N3     -2.718000    6.670000    0.698000 NC   51 G5     -0.6323 ****
1584 C4     -1.434000    6.280000    0.915000 CB   51 G5      0.1222 ****
1585 C3'     0.706000   10.476000    2.266000 CT   51 G5      0.2022 ****
1586 H3'     1.659000   10.738000    2.724000 H1   51 G5      0.0615 ****
1587 C2'     0.274000    9.088000    2.746000 CT   51 G5      0.0670 ****
1588 H2'     0.989000    8.719000    3.481000 H1   51 G5      0.0972 ****
1589 O2'    -1.022000    9.172000    3.343000 OH   51 G5     -0.6139 ****
1590 HO2'   -1.257000    8.286000    3.630000 HO   51 G5      0.4186 ****
1591 O3'    -0.306000   11.394000    2.655000 OS   51 G5     -0.5246 ****
1592 P      -0.877000    9.278000    3.953000 P    52 G       1.1662 ****
1593 OP1    -0.665000   10.730000    4.139000 O2   52 G      -0.7760 ****
1594 OP2    -0.049000    8.361000    4.768000 O2   52 G      -0.7760 ****
1595 O5'    -2.444000    9.044000    4.180000 OS   52 G      -0.4989 ****
1596 C5'    -3.366000    9.441000    3.147000 CI   52 G       0.0558 ****
1597 H5'    -3.139000    8.899000    2.229000 H1   52 G       0.0679 ****
1598 H5''   -3.272000   10.512000    2.968000 H1   52 G       0.0679 ****
1599 C4'    -4.791000    9.128000    3.573000 CT   52 G       0.1065 ****
1600 H4'    -5.486000    9.727000    2.985000 H1   52 G       0.1174 ****
1601 O4'    -5.099000    7.748000    3.210000 OS   52 G      -0.3548 ****
1602 C1'    -5.102000    6.929000    4.369000 CT   52 G       0.0191 ****
1603 H1'    -6.085000    6.474000    4.491000 H2   52 G       0.2006 ****
1604 N9     -4.205000    5.766000    4.116000 N*   52 G       0.0492 ****
1605 C8     -2.831000    5.687000    4.212000 CP   52 G       0.1374 ****
1606 H8     -2.260000    6.555000    4.509000 H5   52 G       0.1640 ****
1607 N7     -2.343000    4.508000    3.917000 NB   52 G      -0.5709 ****
1608 C5     -3.465000    3.751000    3.602000 CB   52 G       0.1744 ****
1609 C6     -3.577000    2.393000    3.202000 C    52 G       0.4770 ****
1610 O6     -2.685000    1.561000    3.041000 O    52 G      -0.5597 ****
1611 N1     -4.912000    2.034000    2.983000 NA   52 G      -0.4787 ****
1612 H1     -5.094000    1.094000    2.696000 H    52 G       0.3424 ****
1613 C2     -5.997000    2.874000    3.132000 CA   52 G       0.7657 ****
1614 N2     -7.197000    2.335000    2.873000 N2   52 G      -0.9672 ****
1615 H21    -7.387000    1.390000    2.571000 H    52 G       0.4364 ****
1616 H22    -7.996000    2.946000    2.971000 H    52 G       0.4364 ****
1617 N3     -5.891000    4.145000    3.508000 NC   52 G      -0.6323 ****
1618 C4     -4.599000    4.510000    3.725000 CB   52 G       0.1222 ****
1619 C3'    -5.066000    9.197000    5.076000 CT   52 G       0.2022 ****
1620 H3'    -4.405000    9.933000    5.534000 H1   52 G       0.0615 ****
1621 C2'    -4.679000    7.796000    5.556000 CT   52 G       0.0670 ****
1622 H2'    -3.878000    7.871000    6.291000 H1   52 G       0.0972 ****
1623 O2'    -5.815000    7.166000    6.153000 OH   52 G      -0.6139 ****
1624 HO2'   -5.534000    6.294000    6.440000 HO   52 G       0.4186 ****
1625 O3'    -6.413000    9.423000    5.465000 OS   52 G      -0.5246 ****
1626 P      -5.908000    7.416000    6.849000 P    53 U       1.1662 ****
1627 OP1    -6.550000    8.723000    7.114000 O2   53 U      -0.7760 ****
1628 OP2    -4.674000    7.101000    7.602000 O2   53 U      -0.7760 ****
1629 O5'    -7.056000    6.324000    7.078000 OS   53 U      -0.4989 ****
1630 C5'    -8.081000    6.168000    6.080000 CI   53 U       0.0558 ****
1631 H5'    -7.624000    5.888000    5.130000 H1   53 U       0.0679 ****
1632 H5''   -8.619000    7.108000    5.960000 H1   53 U       0.0679 ****
1633 C4'    -9.058000    5.083000    6.503000 CT   53 U       0.1065 ****
1634 H4'    -9.994000    5.204000    5.957000 H1   53 U       0.1174 ****
1635 O4'    -8.544000    3.788000    6.065000 OS   53 U      -0.3548 ****
1636 C1'    -8.035000    3.067000    7.177000 CT   53 U       0.0674 ****
1637 H1'    -8.581000    2.129000    7.284000 H2   53 U       0.1824 ****
1638 N1     -6.608000    2.602000    6.876000 N*   53 U       0.0418 ****
1639 C6     -5.513000    3.413000    7.018000 CS   53 U      -0.1126 ****
1640 H6     -5.635000    4.431000    7.357000 H4   53 U       0.2188 ****
1641 C5     -4.274000    2.952000    6.796000 CS   53 U      -0.3635 ****
1642 H5     -3.417000    3.615000    6.915000 HA   53 U       0.1811 ****
1643 C4     -4.057000    1.585000    6.400000 C    53 U       0.5952 ****
1644 O4     -2.960000    1.076000    6.175000 O    53 U      -0.5761 ****
1645 N3     -5.214000    0.843000    6.281000 NA   53 U      -0.3549 ****
1646 H3     -5.099000   -0.200000    5.983000 H    53 U       0.3154 ****
1647 C2     -6.501000    1.288000    6.503000 C    53 U       0.4687 ****
1648 O2     -7.465000    0.553000    6.372000 O    53 U      -0.5477 ****
1649 C3'    -9.262000    4.923000    8.011000 CT   53 U       0.2022 ****
1650 H3'    -9.117000    5.885000    8.502000 H1   53 U       0.0615 ****
1651 C2'    -8.130000    3.972000    8.406000 CT   53 U       0.0670 ****
1652 H2'    -7.484000    4.460000    9.136000 H1   53 U       0.0972 ****
1653 O2'    -8.683000    2.784000    8.979000 OH   53 U      -0.6139 ****
1654 HO2'   -7.945000    2.216000    9.213000 HO   53 U       0.4186 ****
1655 O3'   -10.482000    4.327000    8.426000 OS   53 U      -0.5246 ****
1656 P      -8.775000    3.066000    9.568000 P    54 C       1.1662 ****
1657 OP1   -10.002000    3.871000    9.760000 O2   54 C      -0.7760 ****
1658 OP2    -7.590000    3.432000   10.376000 O2   54 C      -0.7760 ****
1659 O5'    -9.223000    1.547000    9.799000 OS   54 C      -0.4989 ****
1660 C5'    -9.977000    0.877000    8.772000 CI   54 C       0.0558 ****
1661 H5'    -9.395000    0.853000    7.851000 H1   54 C       0.0679 ****
1662 H5''  -10.910000    1.413000    8.598000 H1   54 C       0.0679 ****
1663 C4'   -10.291000   -0.546000    9.202000 CT   54 C       0.1065 ****
1664 H4'   -11.131000   -0.925000    8.620000 H1   54 C       0.1174 ****
1665 O4'    -9.172000   -1.409000    8.833000 OS   54 C      -0.3548 ****
1666 C1'    -8.424000   -1.755000    9.989000 CT   54 C       0.0066 ****
1667 H1'    -8.425000   -2.838000   10.113000 H2   54 C       0.2029 ****
1668 N1     -6.993000   -1.432000    9.728000 N*   54 C      -0.0484 ****
1669 C6     -6.521000   -0.165000    9.871000 C4   54 C       0.0053 ****
1670 H6     -7.186000    0.627000   10.179000 H4   54 C       0.1958 ****
1671 C5     -5.214000    0.127000    9.632000 C4   54 C      -0.5215 ****
1672 H5     -4.853000    1.148000    9.752000 HA   54 C       0.1928 ****
1673 C4     -4.373000   -0.956000    9.226000 CA   54 C       0.8185 ****
1674 N4     -3.094000   -0.744000    8.978000 N2   54 C      -0.9530 ****
1675 H41    -2.533000   -1.534000    8.694000 H    54 C       0.4234 ****
1676 H42    -2.704000    0.183000    9.072000 H    54 C       0.4234 ****
1677 N3     -4.843000   -2.192000    9.089000 NC   54 C      -0.7584 ****
1678 C2     -6.153000   -2.464000    9.333000 C    54 C       0.7538 ****
1679 O2     -6.628000   -3.603000    9.216000 O    54 C      -0.6252 ****
1680 C3'   -10.461000   -0.765000   10.707000 CT   54 C       0.2022 ****
1681 H3'   -10.847000    0.146000   11.166000 H1   54 C       0.0615 ****
1682 C2'    -9.025000   -1.004000   11.179000 CT   54 C       0.0670 ****
1683 H2'    -8.751000   -0.244000   11.911000 H1   54 C       0.0972 ****
1684 O2'    -8.929000   -2.299000   11.777000 OH   54 C      -0.6139 ****
1685 HO2'   -8.018000   -2.411000   12.059000 HO   54 C       0.4186 ****
1686 O3'   -11.231000   -1.890000   11.102000 OS   54 C      -0.5246 ****
1687 P      -9.041000   -2.161000   12.378000 P    55 C       1.1662 ****
1688 OP1   -10.508000   -2.146000   12.570000 O2   55 C      -0.7760 ****
1689 OP2    -8.241000   -1.213000   13.186000 O2   55 C      -0.7760 ****
1690 O5'    -8.597000   -3.680000   12.609000 OS   55 C      -0.4989 ****
1691 C5'    -8.870000   -4.652000   11.582000 CI   55 C       0.0558 ****
1692 H5'    -8.367000   -4.358000   10.661000 H1   55 C       0.0679 ****
1693 H5''   -9.944000   -4.705000   11.408000 H1   55 C       0.0679 ****
1694 C4'    -8.365000   -6.019000   12.012000 CT   55 C       0.1065 ****
1695 H4'    -8.867000   -6.792000   11.430000 H1   55 C       0.1174 ****
1696 O4'    -6.958000   -6.141000   11.643000 OS   55 C      -0.3548 ****
1697 C1'    -6.140000   -6.028000   12.799000 CT   55 C       0.0066 ****
1698 H1'    -5.557000   -6.940000   12.923000 H2   55 C       0.2029 ****
1699 N1     -5.111000   -4.983000   12.538000 N*   55 C      -0.0484 ****
1700 C6     -5.398000   -3.662000   12.681000 C4   55 C       0.0053 ****
1701 H6     -6.386000   -3.354000   12.989000 H4   55 C       0.1958 ****
1702 C5     -4.456000   -2.710000   12.442000 C4   55 C      -0.5215 ****
1703 H5     -4.704000   -1.655000   12.562000 HA   55 C       0.1928 ****
1704 C4     -3.163000   -3.167000   12.036000 CA   55 C       0.8185 ****
1705 N4     -2.202000   -2.297000   11.788000 N2   55 C      -0.9530 ****
1706 H41    -1.303000   -2.660000   11.504000 H    55 C       0.4234 ****
1707 H42    -2.375000   -1.307000   11.882000 H    55 C       0.4234 ****
1708 N3     -2.891000   -4.461000   11.899000 NC   55 C      -0.7584 ****
1709 C2     -3.847000   -5.398000   12.143000 C    55 C       0.7538 ****
1710 O2     -3.631000   -6.613000   12.026000 O    55 C      -0.6252 ****
1711 C3'    -8.390000   -6.295000   13.517000 CT   55 C       0.2022 ****
1712 H3'    -9.206000   -5.737000   13.976000 H1   55 C       0.0615 ****
1713 C2'    -7.052000   -5.720000   13.989000 CT   55 C       0.0670 ****
1714 H2'    -7.232000   -4.933000   14.721000 H1   55 C       0.0972 ****
1715 O2'    -6.272000   -6.758000   14.587000 OH   55 C      -0.6139 ****
1716 HO2'   -5.445000   -6.360000   14.869000 HO   55 C       0.4186 ****
1717 O3'    -8.430000   -7.658000   13.912000 OS   55 C      -0.5246 ****
1718 P      -6.509000   -6.894000   15.279000 P    56 U       1.1662 ****
1719 OP1    -7.713000   -7.714000   15.544000 O2   56 U      -0.7760 ****
1720 OP2    -6.371000   -5.628000   16.032000 O2   56 U      -0.7760 ****
1721 O5'    -5.267000   -7.876000   15.508000 OS   56 U      -0.4989 ****
1722 C5'    -4.968000   -8.869000   14.510000 CI   56 U       0.0558 ****
1723 H5'    -4.755000   -8.378000   13.560000 H1   56 U       0.0679 ****
1724 H5''   -5.823000   -9.535000   14.390000 H1   56 U       0.0679 ****
1725 C4'    -3.756000   -9.684000   14.933000 CT   56 U       0.1065 ****
1726 H4'    -3.744000  -10.628000   14.387000 H1   56 U       0.1174 ****
1727 O4'    -2.547000   -8.993000   14.495000 OS   56 U      -0.3548 ****
1728 C1'    -1.904000   -8.387000   15.607000 CT   56 U       0.0674 ****
1729 H1'    -0.899000   -8.795000   15.714000 H2   56 U       0.1824 ****
1730 N1     -1.645000   -6.909000   15.306000 N*   56 U       0.0418 ****
1731 C6     -2.602000   -5.939000   15.448000 CS   56 U      -0.1126 ****
1732 H6     -3.593000   -6.203000   15.787000 H4   56 U       0.2188 ****
1733 C5     -2.321000   -4.648000   15.226000 CS   56 U      -0.3635 ****
1734 H5     -3.097000   -3.892000   15.345000 HA   56 U       0.1811 ****
1735 C4     -0.998000   -4.239000   14.830000 C    56 U       0.5952 ****
1736 O4     -0.648000   -3.082000   14.605000 O    56 U      -0.5761 ****
1737 N3     -0.100000   -5.280000   14.711000 NA   56 U      -0.3549 ****
1738 H3      0.916000   -5.020000   14.413000 H    56 U       0.3154 ****
1739 C2     -0.359000   -6.617000   14.933000 C    56 U       0.4687 ****
1740 O2      0.505000   -7.469000   14.802000 O    56 U      -0.5477 ****
1741 C3'    -3.569000   -9.863000   16.441000 CT   56 U       0.2022 ****
1742 H3'    -4.541000   -9.855000   16.932000 H1   56 U       0.0615 ****
1743 C2'    -2.787000   -8.609000   16.836000 CT   56 U       0.0670 ****
1744 H2'    -3.361000   -8.037000   17.566000 H1   56 U       0.0972 ****
1745 O2'    -1.533000   -8.988000   17.409000 OH   56 U      -0.6139 ****
1746 HO2'   -1.075000   -8.178000   17.643000 HO   56 U       0.4186 ****
1747 O3'    -2.807000  -10.987000   16.856000 OS   56 U      -0.5246 ****
1748 P      -1.750000   -9.339000   18.126000 P    57 A       1.1662 ****
1749 OP1    -2.313000  -10.680000   18.401000 O2   57 A      -0.7760 ****
1750 OP2    -2.318000   -8.198000   18.879000 O2   57 A      -0.7760 ****
1751 O5'    -0.172000   -9.487000   18.346000 OS   57 A      -0.4989 ****
1752 C5'     0.612000  -10.161000   17.344000 CI   57 A       0.0558 ****
1753 H5'     0.517000   -9.637000   16.393000 H1   57 A       0.0679 ****
1754 H5''    0.255000  -11.185000   17.231000 H1   57 A       0.0679 ****
1755 C4'     2.075000  -10.185000   17.757000 CT   57 A       0.1065 ****
1756 H4'     2.595000  -10.972000   17.211000 H1   57 A       0.1174 ****
1757 O4'     2.711000   -8.949000   17.310000 OS   57 A      -0.3548 ****
1758 C1'     2.929000   -8.086000   18.417000 CT   57 A       0.0394 ****
1759 H1'     3.995000   -7.882000   18.515000 H2   57 A       0.2007 ****
1760 N9      2.344000   -6.715000   18.117000 N*   57 A      -0.0251 ****
1761 C8      1.061000   -6.242000   18.206000 C5   57 A       0.2006 ****
1762 H8      0.267000   -6.894000   18.540000 H5   57 A       0.1553 ****
1763 N7      0.944000   -4.979000   17.921000 NB   57 A      -0.6073 ****
1764 C5      2.242000   -4.581000   17.619000 CB   57 A       0.0515 ****
1765 C6      2.786000   -3.349000   17.237000 CA   57 A       0.7009 ****
1766 N6      2.059000   -2.234000   17.083000 N2   57 A      -0.9019 ****
1767 H61     2.508000   -1.373000   16.805000 H    57 A       0.4115 ****
1768 H62     1.063000   -2.255000   17.246000 H    57 A       0.4115 ****
1769 N1      4.107000   -3.301000   17.016000 NC   57 A      -0.7615 ****
1770 C2      4.824000   -4.410000   17.170000 CQ   57 A       0.5875 ****
1771 H2      5.890000   -4.393000   16.997000 H5   57 A       0.0473 ****
1772 N3      4.425000   -5.618000   17.524000 NC   57 A      -0.6997 ****
1773 C4      3.093000   -5.639000   17.740000 CB   57 A       0.3053 ****
1774 C3'     2.340000  -10.227000   19.263000 CT   57 A       0.2022 ****
1775 H3'     1.523000  -10.747000   19.762000 H1   57 A       0.0615 ****
1776 C2'     2.317000   -8.748000   19.653000 CT   57 A       0.0670 ****
1777 H2'     1.530000   -8.578000   20.388000 H1   57 A       0.0972 ****
1778 O2'     3.580000   -8.382000   20.216000 OH   57 A      -0.6139 ****
1779 HO2'    3.525000   -7.452000   20.447000 HO   57 A       0.4186 ****
1780 O3'     3.594000  -10.755000   19.671000 OS   57 A      -0.5246 ****
1781 P       3.559000   -8.788000   20.899000 P    58 U       1.1662 ****
1782 OP1     3.803000  -10.224000   21.164000 O2   58 U      -0.7760 ****
1783 OP2     2.465000   -8.136000   21.652000 O2   58 U      -0.7760 ****
1784 O5'     4.969000   -8.067000   21.128000 OS   58 U      -0.4989 ****
1785 C5'     5.996000   -8.209000   20.130000 CI   58 U       0.0558 ****
1786 H5'     5.638000   -7.811000   19.180000 H1   58 U       0.0679 ****
1787 H5''    6.245000   -9.264000   20.010000 H1   58 U       0.0679 ****
1788 C4'     7.241000   -7.447000   20.553000 CT   58 U       0.1065 ****
1789 H4'     8.105000   -7.828000   20.007000 H1   58 U       0.1174 ****
1790 O4'     7.117000   -6.059000   20.115000 OS   58 U      -0.3548 ****
1791 C1'     6.833000   -5.222000   21.227000 CT   58 U       0.0674 ****
1792 H1'     7.622000   -4.479000   21.334000 H2   58 U       0.1824 ****
1793 N1      5.597000   -4.372000   20.926000 N*   58 U       0.0418 ****
1794 C6      4.317000   -4.838000   21.068000 CS   58 U      -0.1126 ****
1795 H6      4.145000   -5.849000   21.407000 H4   58 U       0.2188 ****
1796 C5      3.260000   -4.045000   20.846000 CS   58 U      -0.3635 ****
1797 H5      2.250000   -4.437000   20.965000 HA   58 U       0.1811 ****
1798 C4      3.439000   -2.672000   20.450000 C    58 U       0.5952 ****
1799 O4      2.533000   -1.872000   20.225000 O    58 U      -0.5761 ****
1800 N3      4.760000   -2.289000   20.331000 NA   58 U      -0.3549 ****
1801 H3      4.946000   -1.257000   20.033000 H    58 U       0.3154 ****
1802 C2      5.867000   -3.081000   20.553000 C    58 U       0.4687 ****
1803 O2      7.001000   -2.650000   20.422000 O    58 U      -0.5477 ****
1804 C3'     7.482000   -7.350000   22.061000 CT   58 U       0.2022 ****
1805 H3'     7.070000   -8.232000   22.552000 H1   58 U       0.0615 ****
1806 C2'     6.667000   -6.118000   22.456000 CT   58 U       0.0670 ****
1807 H2'     5.909000   -6.402000   23.186000 H1   58 U       0.0972 ****
1808 O2'     7.534000   -5.136000   23.029000 OH   58 U      -0.6139 ****
1809 HO2'    6.988000   -4.381000   23.263000 HO   58 U       0.4186 ****
1810 O3'     8.822000   -7.126000   22.476000 OS   58 U      -0.5246 ****
1811 P       7.763000   -5.479000   23.746000 P    59 A       1.1662 ****
1812 OP1     8.748000   -6.549000   24.021000 O2   59 A      -0.7760 ****
1813 OP2     6.490000   -5.520000   24.499000 O2   59 A      -0.7760 ****
1814 O5'     8.554000   -4.105000   23.966000 OS   59 A      -0.4989 ****
1815 C5'     9.494000   -3.673000   22.964000 CI   59 A       0.0558 ****
1816 H5'     8.978000   -3.542000   22.013000 H1   59 A       0.0679 ****
1817 H5''   10.276000   -4.424000   22.851000 H1   59 A       0.0679 ****
1818 C4'    10.124000   -2.353000   23.377000 CT   59 A       0.1065 ****
1819 H4'    11.056000   -2.208000   22.831000 H1   59 A       0.1174 ****
1820 O4'     9.265000   -1.260000   22.930000 OS   59 A      -0.3548 ****
1821 C1'     8.571000   -0.703000   24.037000 CT   59 A       0.0394 ****
1822 H1'     8.829000    0.351000   24.135000 H2   59 A       0.2007 ****
1823 N9      7.082000   -0.664000   23.737000 N*   59 A      -0.0251 ****
1824 C8      6.117000   -1.633000   23.826000 C5   59 A       0.2006 ****
1825 H8      6.379000   -2.627000   24.160000 H5   59 A       0.1553 ****
1826 N7      4.920000   -1.214000   23.541000 NB   59 A      -0.6073 ****
1827 C5      5.098000    0.131000   23.239000 CB   59 A       0.0515 ****
1828 C6      4.205000    1.139000   22.857000 CA   59 A       0.7009 ****
1829 N6      2.889000    0.942000   22.703000 N2   59 A      -0.9019 ****
1830 H61     2.292000    1.708000   22.425000 H    59 A       0.4115 ****
1831 H62     2.493000    0.027000   22.866000 H    59 A       0.4115 ****
1832 N1      4.711000    2.360000   22.636000 NC   59 A      -0.7615 ****
1833 C2      6.018000    2.550000   22.790000 CQ   59 A       0.5875 ****
1834 H2      6.446000    3.526000   22.617000 H5   59 A       0.0473 ****
1835 N3      6.950000    1.685000   23.144000 NC   59 A      -0.6997 ****
1836 C4      6.415000    0.465000   23.360000 CB   59 A       0.3053 ****
1837 C3'    10.273000   -2.129000   24.883000 CT   59 A       0.2022 ****
1838 H3'    10.406000   -3.089000   25.382000 H1   59 A       0.0615 ****
1839 C2'     8.918000   -1.535000   25.273000 CT   59 A       0.0670 ****
1840 H2'     8.436000   -2.180000   26.008000 H1   59 A       0.0972 ****
1841 O2'     9.112000   -0.235000   25.836000 OH   59 A      -0.6139 ****
1842 HO2'    8.243000    0.103000   26.067000 HO   59 A       0.4186 ****
1843 O3'    11.275000   -1.209000   25.291000 OS   59 A      -0.5246 ****
1844 P       9.282000   -0.496000   26.428000 P    60 C       1.1662 ****
1845 OP1    10.685000   -0.927000   26.620000 O2   60 C      -0.7760 ****
1846 OP2     8.246000   -1.178000   27.236000 O2   60 C      -0.7760 ****
1847 O5'     9.288000    1.087000   26.659000 OS   60 C      -0.4989 ****
1848 C5'     9.826000    1.941000   25.632000 CI   60 C       0.0558 ****
1849 H5'     9.260000    1.802000   24.711000 H1   60 C       0.0679 ****
1850 H5''   10.871000    1.687000   25.458000 H1   60 C       0.0679 ****
1851 C4'     9.730000    3.396000   26.062000 CT   60 C       0.1065 ****
1852 H4'    10.431000    3.994000   25.480000 H1   60 C       0.1174 ****
1853 O4'     8.415000    3.912000   25.693000 OS   60 C      -0.3548 ****
1854 C1'     7.600000    4.035000   26.849000 CT   60 C       0.0066 ****
1855 H1'     7.299000    5.076000   26.973000 H2   60 C       0.2029 ****
1856 N1      6.315000    3.327000   26.588000 N*   60 C      -0.0484 ****
1857 C6      6.216000    1.978000   26.731000 C4   60 C       0.0053 ****
1858 H6      7.076000    1.402000   27.039000 H4   60 C       0.1958 ****
1859 C5      5.043000    1.333000   26.492000 C4   60 C      -0.5215 ****
1860 H5      4.981000    0.251000   26.612000 HA   60 C       0.1928 ****
1861 C4      3.932000    2.138000   26.086000 CA   60 C       0.8185 ****
1862 N4      2.764000    1.577000   25.838000 N2   60 C      -0.9530 ****
1863 H41     2.005000    2.180000   25.554000 H    60 C       0.4234 ****
1864 H42     2.648000    0.578000   25.932000 H    60 C       0.4234 ****
1865 N3      4.039000    3.457000   25.949000 NC   60 C      -0.7584 ****
1866 C2      5.221000    4.083000   26.193000 C    60 C       0.7538 ****
1867 O2      5.360000    5.309000   26.076000 O    60 C      -0.6252 ****
1868 C3'     9.832000    3.653000   27.567000 CT   60 C       0.2022 ****
1869 H3'    10.457000    2.886000   28.026000 H1   60 C       0.0615 ****
1870 C2'     8.387000    3.482000   28.039000 CT   60 C       0.0670 ****
1871 H2'     8.336000    2.676000   28.771000 H1   60 C       0.0972 ****
1872 O2'     7.933000    4.699000   28.637000 OH   60 C      -0.6139 ****
1873 HO2'    7.027000    4.552000   28.919000 HO   60 C       0.4186 ****
1874 O3'    10.258000    4.949000   27.962000 OS   60 C      -0.5246 ****
1875 P       8.199000    4.762000   29.329000 P    61 U       1.1662 ****
1876 OP1     9.586000    5.205000   29.594000 O2   61 U      -0.7760 ****
1877 OP2     7.708000    3.587000   30.082000 O2   61 U      -0.7760 ****
1878 O5'     7.287000    6.056000   29.558000 OS   61 U      -0.4989 ****
1879 C5'     7.282000    7.093000   28.560000 CI   61 U       0.0558 ****
1880 H5'     6.939000    6.682000   27.610000 H1   61 U       0.0679 ****
1881 H5''    8.291000    7.488000   28.440000 H1   61 U       0.0679 ****
1882 C4'     6.352000    8.218000   28.983000 CT   61 U       0.1065 ****
1883 H4'     6.608000    9.127000   28.437000 H1   61 U       0.1174 ****
1884 O4'     4.996000    7.899000   28.545000 OS   61 U      -0.3548 ****
1885 C1'     4.208000    7.500000   29.657000 CT   61 U       0.0674 ****
1886 H1'     3.360000    8.177000   29.764000 H2   61 U       0.1824 ****
1887 N1      3.540000    6.157000   29.356000 N*   61 U       0.0418 ****
1888 C6      4.182000    4.955000   29.498000 CS   61 U      -0.1126 ****
1889 H6      5.207000    4.927000   29.837000 H4   61 U       0.2188 ****
1890 C5      3.545000    3.797000   29.276000 CS   61 U      -0.3635 ****
1891 H5      4.075000    2.852000   29.395000 HA   61 U       0.1811 ****
1892 C4      2.161000    3.781000   28.880000 C    61 U       0.5952 ****
1893 O4      1.497000    2.771000   28.655000 O    61 U      -0.5761 ****
1894 N3      1.595000    5.035000   28.761000 NA   61 U      -0.3549 ****
1895 H3      0.547000    5.074000   28.463000 H    61 U       0.3154 ****
1896 C2      2.224000    6.243000   28.983000 C    61 U       0.4687 ****
1897 O2      1.637000    7.304000   28.852000 O    61 U      -0.5477 ****
1898 C3'     6.223000    8.443000   30.491000 CT   61 U       0.2022 ****
1899 H3'     7.153000    8.159000   30.982000 H1   61 U       0.0615 ****
1900 C2'     5.117000    7.463000   30.886000 CT   61 U       0.0670 ****
1901 H2'     5.505000    6.752000   31.616000 H1   61 U       0.0972 ****
1902 O2'     4.023000    8.183000   31.459000 OH   61 U      -0.6139 ****
1903 HO2'    3.353000    7.536000   31.693000 HO   61 U       0.4186 ****
1904 O3'     5.812000    9.738000   30.906000 OS   61 U      -0.5246 ****
1905 P       4.327000    8.437000   32.139000 P    62 U       1.1662 ****
1906 OP1     5.254000    9.559000   32.404000 O2   62 U      -0.7760 ****
1907 OP2     4.548000    7.182000   32.892000 O2   62 U      -0.7760 ****
1908 O5'     2.860000    9.033000   32.368000 OS   62 U      -0.4989 ****
1909 C5'     2.296000    9.903000   31.370000 CI   62 U       0.0558 ****
1910 H5'     2.229000    9.372000   30.420000 H1   62 U       0.0679 ****
1911 H5''    2.932000   10.781000   31.250000 H1   62 U       0.0679 ****
1912 C4'     0.905000   10.347000   31.793000 CT   62 U       0.1065 ****
1913 H4'     0.630000   11.250000   31.247000 H1   62 U       0.1174 ****
1914 O4'    -0.063000    9.346000   31.355000 OS   62 U      -0.3548 ****
1915 C1'    -0.511000    8.585000   32.467000 CT   62 U       0.0674 ****
1916 H1'    -1.590000    8.697000   32.574000 H2   62 U       0.1824 ****
1917 N1     -0.348000    7.094000   32.166000 N*   62 U       0.0418 ****
1918 C6      0.842000    6.429000   32.308000 CS   62 U      -0.1126 ****
1919 H6      1.720000    6.960000   32.647000 H4   62 U       0.2188 ****
1920 C5      0.932000    5.111000   32.086000 CS   62 U      -0.3635 ****
1921 H5      1.889000    4.602000   32.205000 HA   62 U       0.1811 ****
1922 C4     -0.224000    4.350000   31.690000 C    62 U       0.5952 ****
1923 O4     -0.238000    3.140000   31.465000 O    62 U      -0.5761 ****
1924 N3     -1.378000    5.098000   31.571000 NA   62 U      -0.3549 ****
1925 H3     -2.280000    4.565000   31.273000 H    62 U       0.3154 ****
1926 C2     -1.501000    6.455000   31.793000 C    62 U       0.4687 ****
1927 O2     -2.568000    7.031000   31.662000 O    62 U      -0.5477 ****
1928 C3'     0.675000   10.467000   33.301000 CT   62 U       0.2022 ****
1929 H3'     1.612000   10.731000   33.792000 H1   62 U       0.0615 ****
1930 C2'     0.275000    9.044000   33.696000 CT   62 U       0.0670 ****
1931 H2'     0.985000    8.656000   34.426000 H1   62 U       0.0972 ****
1932 O2'    -1.035000    9.059000   34.269000 OH   62 U      -0.6139 ****
1933 HO2'   -1.250000    8.153000   34.503000 HO   62 U       0.4186 ****
1934 O3'    -0.370000   11.334000   33.716000 OS   62 U      -0.5246 ****
1935 P      -0.817000    9.259000   34.858000 P    63 C       1.1662 ****
1936 OP1    -0.588000   10.709000   35.050000 O2   63 C      -0.7760 ****
1937 OP2     0.004000    8.330000   35.666000 O2   63 C      -0.7760 ****
1938 O5'    -2.385000    9.042000   35.089000 OS   63 C      -0.4989 ****
1939 C5'    -3.306000    9.454000   34.062000 CI   63 C       0.0558 ****
1940 H5'    -3.089000    8.914000   33.141000 H1   63 C       0.0679 ****
1941 H5''   -3.202000   10.525000   33.888000 H1   63 C       0.0679 ****
1942 C4'    -4.733000    9.155000   34.492000 CT   63 C       0.1065 ****
1943 H4'    -5.424000    9.764000   33.910000 H1   63 C       0.1174 ****
1944 O4'    -5.058000    7.780000   34.123000 OS   63 C      -0.3548 ****
1945 C1'    -5.066000    6.955000   35.279000 CT   63 C       0.0066 ****
1946 H1'    -6.054000    6.511000   35.403000 H2   63 C       0.2029 ****
1947 N1     -4.183000    5.784000   35.018000 N*   63 C      -0.0484 ****
1948 C6     -2.834000    5.875000   35.161000 C4   63 C       0.0053 ****
1949 H6     -2.385000    6.808000   35.469000 H4   63 C       0.1958 ****
1950 C5     -2.030000    4.804000   34.922000 C4   63 C      -0.5215 ****
1951 H5     -0.950000    4.896000   35.042000 HA   63 C       0.1928 ****
1952 C4     -2.671000    3.592000   34.516000 CA   63 C       0.8185 ****
1953 N4     -1.951000    2.514000   34.268000 N2   63 C      -0.9530 ****
1954 H41    -2.441000    1.677000   33.984000 H    63 C       0.4234 ****
1955 H42    -0.946000    2.540000   34.362000 H    63 C       0.4234 ****
1956 N3     -3.991000    3.512000   34.379000 NC   63 C      -0.7584 ****
1957 C2     -4.778000    4.594000   34.623000 C    63 C       0.7538 ****
1958 O2     -6.012000    4.558000   34.506000 O    63 C      -0.6252 ****
1959 C3'    -5.002000    9.219000   35.997000 CT   63 C       0.2022 ****
1960 H3'    -4.331000    9.946000   36.456000 H1   63 C       0.0615 ****
1961 C2'    -4.629000    7.812000   36.469000 CT   63 C       0.0670 ****
1962 H2'    -3.824000    7.875000   37.201000 H1   63 C       0.0972 ****
1963 O2'    -5.770000    7.192000   37.067000 OH   63 C      -0.6139 ****
1964 HO2'   -5.497000    6.315000   37.349000 HO   63 C       0.4186 ****
1965 O3'    -6.345000    9.458000   36.392000 OS   63 C      -0.5246 ****
1966 P      -5.887000    7.458000   37.796000 P    64 A       1.1662 ****
1967 OP1    -6.528000    8.763000   38.071000 O2   64 A      -0.7760 ****
1968 OP2    -4.654000    7.136000   38.549000 O2   64 A      -0.7760 ****
1969 O5'    -7.036000    6.366000   38.016000 OS   64 A      -0.4989 ****
1970 C5'    -8.060000    6.219000   37.014000 CI   64 A       0.0558 ****
1971 H5'    -7.602000    5.946000   36.063000 H1   64 A       0.0679 ****
1972 H5''   -8.597000    7.160000   36.901000 H1   64 A       0.0679 ****
1973 C4'    -9.039000    5.132000   37.427000 CT   64 A       0.1065 ****
1974 H4'    -9.974000    5.258000   36.881000 H1   64 A       0.1174 ****
1975 O4'    -8.526000    3.840000   36.980000 OS   64 A      -0.3548 ****
1976 C1'    -8.018000    3.109000   38.087000 CT   64 A       0.0394 ****
1977 H1'    -8.566000    2.171000   38.185000 H2   64 A       0.2007 ****
1978 N9     -6.601000    2.648000   37.787000 N*   64 A      -0.0251 ****
1979 C8     -5.402000    3.303000   37.876000 C5   64 A       0.2006 ****
1980 H8     -5.371000    4.330000   38.210000 H5   64 A       0.1553 ****
1981 N7     -4.373000    2.562000   37.591000 NB   64 A      -0.6073 ****
1982 C5     -4.925000    1.322000   37.289000 CB   64 A       0.0515 ****
1983 C6     -4.356000    0.102000   36.907000 CA   64 A       0.7009 ****
1984 N6     -3.037000   -0.083000   36.753000 N2   64 A      -0.9019 ****
1985 H61    -2.683000   -0.987000   36.475000 H    64 A       0.4115 ****
1986 H62    -2.398000    0.682000   36.916000 H    64 A       0.4115 ****
1987 N1     -5.187000   -0.925000   36.686000 NC   64 A      -0.7615 ****
1988 C2     -6.495000   -0.736000   36.840000 CQ   64 A       0.5875 ****
1989 H2     -7.182000   -1.550000   36.667000 H5   64 A       0.0473 ****
1990 N3     -7.143000    0.358000   37.194000 NC   64 A      -0.6997 ****
1991 C4     -6.282000    1.376000   37.410000 CB   64 A       0.3053 ****
1992 C3'    -9.245000    4.959000   38.933000 CT   64 A       0.2022 ****
1993 H3'    -9.100000    5.917000   39.432000 H1   64 A       0.0615 ****
1994 C2'    -8.115000    4.005000   39.323000 CT   64 A       0.0670 ****
1995 H2'    -7.469000    4.486000   40.058000 H1   64 A       0.0972 ****
1996 O2'    -8.670000    2.813000   39.886000 OH   64 A      -0.6139 ****
1997 HO2'   -7.933000    2.242000   40.117000 HO   64 A       0.4186 ****
1998 O3'   -10.467000    4.362000   39.341000 OS   64 A      -0.5246 ****
1999 P      -8.983000    3.095000   40.606000 P    65 A       1.1662 ****
2000 OP1   -10.228000    3.848000   40.881000 O2   65 A      -0.7760 ****
2001 OP2    -7.772000    3.490000   41.359000 O2   65 A      -0.7760 ****
2002 O5'    -9.360000    1.556000   40.826000 OS   65 A      -0.4989 ****
2003 C5'   -10.142000    0.879000   39.824000 CI   65 A       0.0558 ****
2004 H5'    -9.609000    0.897000   38.873000 H1   65 A       0.0679 ****
2005 H5''  -11.102000    1.381000   39.711000 H1   65 A       0.0679 ****
2006 C4'   -10.378000   -0.565000   40.237000 CT   65 A       0.1065 ****
2007 H4'   -11.233000   -0.964000   39.691000 H1   65 A       0.1174 ****
2008 O4'    -9.249000   -1.375000   39.790000 OS   65 A      -0.3548 ****
2009 C1'    -8.427000   -1.716000   40.897000 CT   65 A       0.0394 ****
2010 H1'    -8.381000   -2.800000   40.995000 H2   65 A       0.2007 ****
2011 N9     -6.986000   -1.338000   40.597000 N*   65 A      -0.0251 ****
2012 C8     -6.330000   -0.138000   40.686000 C5   65 A       0.2006 ****
2013 H8     -6.859000    0.743000   41.020000 H5   65 A       0.1553 ****
2014 N7     -5.064000   -0.207000   40.401000 NB   65 A      -0.6073 ****
2015 C5     -4.859000   -1.548000   40.099000 CB   65 A       0.0515 ****
2016 C6     -3.720000   -2.267000   39.717000 CA   65 A       0.7009 ****
2017 N6     -2.511000   -1.711000   39.563000 N2   65 A      -0.9019 ****
2018 H61    -1.725000   -2.280000   39.285000 H    65 A       0.4115 ****
2019 H62    -2.386000   -0.722000   39.726000 H    65 A       0.4115 ****
2020 N1     -3.865000   -3.581000   39.496000 NC   65 A      -0.7615 ****
2021 C2     -5.068000   -4.128000   39.650000 CQ   65 A       0.5875 ****
2022 H2     -5.206000   -5.185000   39.477000 H5   65 A       0.0473 ****
2023 N3     -6.204000   -3.557000   40.004000 NC   65 A      -0.6997 ****
2024 C4     -6.030000   -2.236000   40.220000 CB   65 A       0.3053 ****
2025 C3'   -10.459000   -0.821000   41.743000 CT   65 A       0.2022 ****
2026 H3'   -10.855000    0.063000   42.242000 H1   65 A       0.0615 ****
2027 C2'    -8.992000   -1.014000   42.133000 CT   65 A       0.0670 ****
2028 H2'    -8.709000   -0.260000   42.868000 H1   65 A       0.0972 ****
2029 O2'    -8.815000   -2.317000   42.696000 OH   65 A      -0.6139 ****
2030 HO2'   -7.887000   -2.399000   42.927000 HO   65 A       0.4186 ****
2031 O3'   -11.164000   -1.984000   42.151000 OS   65 A      -0.5246 ****
2032 P      -9.052000   -2.113000   43.288000 P    66 C       1.1662 ****
2033 OP1   -10.519000   -2.091000   43.480000 O2   66 C      -0.7760 ****
2034 OP2    -8.248000   -1.169000   44.096000 O2   66 C      -0.7760 ****
2035 O5'    -8.616000   -3.635000   43.519000 OS   66 C      -0.4989 ****
2036 C5'    -8.894000   -4.605000   42.492000 CI   66 C       0.0558 ****
2037 H5'    -8.390000   -4.314000   41.571000 H1   66 C       0.0679 ****
2038 H5''   -9.969000   -4.653000   42.318000 H1   66 C       0.0679 ****
2039 C4'    -8.397000   -5.976000   42.922000 CT   66 C       0.1065 ****
2040 H4'    -8.903000   -6.746000   42.340000 H1   66 C       0.1174 ****
2041 O4'    -6.990000   -6.104000   42.553000 OS   66 C      -0.3548 ****
2042 C1'    -6.172000   -5.995000   43.709000 CT   66 C       0.0066 ****
2043 H1'    -5.593000   -6.911000   43.833000 H2   66 C       0.2029 ****
2044 N1     -5.137000   -4.956000   43.448000 N*   66 C      -0.0484 ****
2045 C6     -5.417000   -3.633000   43.591000 C4   66 C       0.0053 ****
2046 H6     -6.404000   -3.321000   43.899000 H4   66 C       0.1958 ****
2047 C5     -4.470000   -2.687000   43.352000 C4   66 C      -0.5215 ****
2048 H5     -4.713000   -1.631000   43.472000 HA   66 C       0.1928 ****
2049 C4     -3.180000   -3.150000   42.946000 CA   66 C       0.8185 ****
2050 N4     -2.214000   -2.286000   42.698000 N2   66 C      -0.9530 ****
2051 H41    -1.317000   -2.653000   42.414000 H    66 C       0.4234 ****
2052 H42    -2.381000   -1.294000   42.792000 H    66 C       0.4234 ****
2053 N3     -2.914000   -4.446000   42.809000 NC   66 C      -0.7584 ****
2054 C2     -3.875000   -5.377000   43.053000 C    66 C       0.7538 ****
2055 O2     -3.666000   -6.594000   42.936000 O    66 C      -0.6252 ****
2056 C3'    -8.423000   -6.251000   44.427000 CT   66 C       0.2022 ****
2057 H3'    -9.236000   -5.689000   44.886000 H1   66 C       0.0615 ****
2058 C2'    -7.082000   -5.683000   44.899000 CT   66 C       0.0670 ****
2059 H2'    -7.258000   -4.895000   45.631000 H1   66 C       0.0972 ****
2060 O2'    -6.307000   -6.725000   45.497000 OH   66 C      -0.6139 ****
2061 HO2'   -5.478000   -6.332000   45.779000 HO   66 C       0.4186 ****
2062 O3'    -8.470000   -7.614000   44.822000 OS   66 C      -0.5246 ****
2063 P      -6.545000   -6.860000   46.189000 P    67 U       1.1662 ****
2064 OP1    -7.753000   -7.673000   46.454000 O2   67 U      -0.7760 ****
2065 OP2    -6.401000   -5.595000   46.942000 O2   67 U      -0.7760 ****
2066 O5'    -5.308000   -7.849000   46.418000 OS   67 U      -0.4989 ****
2067 C5'    -5.014000   -8.843000   45.420000 CI   67 U       0.0558 ****
2068 H5'    -4.799000   -8.353000   44.470000 H1   67 U       0.0679 ****
2069 H5''   -5.873000   -9.504000   45.300000 H1   67 U       0.0679 ****
2070 C4'    -3.807000   -9.664000   45.843000 CT   67 U       0.1065 ****
2071 H4'    -3.799000  -10.608000   45.297000 H1   67 U       0.1174 ****
2072 O4'    -2.594000   -8.980000   45.405000 OS   67 U      -0.3548 ****
2073 C1'    -1.948000   -8.376000   46.517000 CT   67 U       0.0674 ****
2074 H1'    -0.945000   -8.790000   46.624000 H2   67 U       0.1824 ****
2075 N1     -1.681000   -6.900000   46.216000 N*   67 U       0.0418 ****
2076 C6     -2.633000   -5.925000   46.358000 CS   67 U      -0.1126 ****
2077 H6     -3.626000   -6.185000   46.697000 H4   67 U       0.2188 ****
2078 C5     -2.345000   -4.636000   46.136000 CS   67 U      -0.3635 ****
2079 H5     -3.118000   -3.876000   46.255000 HA   67 U       0.1811 ****
2080 C4     -1.020000   -4.234000   45.740000 C    67 U       0.5952 ****
2081 O4     -0.664000   -3.079000   45.515000 O    67 U      -0.5761 ****
2082 N3     -0.127000   -5.280000   45.621000 NA   67 U      -0.3549 ****
2083 H3      0.890000   -5.025000   45.323000 H    67 U       0.3154 ****
2084 C2     -0.394000   -6.615000   45.843000 C    67 U       0.4687 ****
2085 O2      0.465000   -7.471000   45.712000 O    67 U      -0.5477 ****
2086 C3'    -3.620000   -9.844000   47.351000 CT   67 U       0.2022 ****
2087 H3'    -4.593000   -9.831000   47.842000 H1   67 U       0.0615 ****
2088 C2'    -2.832000   -8.594000   47.746000 CT   67 U       0.0670 ****
2089 H2'    -3.403000   -8.020000   48.476000 H1   67 U       0.0972 ****
2090 O2'    -1.580000   -8.980000   48.319000 OH   67 U      -0.6139 ****
2091 HO2'   -1.117000   -8.172000   48.553000 HO   67 U       0.4186 ****
2092 O3'    -2.864000  -10.972000   47.766000 OS   67 U      -0.5246 ****
2093 P      -1.842000   -9.135000   48.913000 P    68 G       1.1662 ****
2094 OP1    -2.465000  -10.465000   49.099000 O2   68 G      -0.7760 ****
2095 OP2    -2.370000   -8.019000   49.728000 O2   68 G      -0.7760 ****
2096 O5'    -0.274000   -9.365000   49.140000 OS   68 G      -0.4989 ****
2097 C5'     0.493000  -10.011000   48.107000 CI   68 G       0.0558 ****
2098 H5'     0.433000   -9.426000   47.189000 H1   68 G       0.0679 ****
2099 H5''    0.094000  -11.009000   47.928000 H1   68 G       0.0679 ****
2100 C4'     1.948000  -10.123000   48.533000 CT   68 G       0.1065 ****
2101 H4'     2.440000  -10.898000   47.945000 H1   68 G       0.1174 ****
2102 O4'     2.642000   -8.891000   48.170000 OS   68 G      -0.3548 ****
2103 C1'     2.882000   -8.108000   49.329000 CT   68 G       0.0191 ****
2104 H1'     3.955000   -7.957000   49.451000 H2   68 G       0.2006 ****
2105 N9      2.359000   -6.735000   49.076000 N*   68 G       0.0492 ****
2106 C8      1.066000   -6.263000   49.172000 CP   68 G       0.1374 ****
2107 H8      0.269000   -6.928000   49.469000 H5   68 G       0.1640 ****
2108 N7      0.940000   -4.993000   48.877000 NB   68 G      -0.5709 ****
2109 C5      2.233000   -4.593000   48.562000 CB   68 G       0.1744 ****
2110 C6      2.733000   -3.325000   48.162000 C    68 G       0.4770 ****
2111 O6      2.120000   -2.271000   48.001000 O    68 G      -0.5597 ****
2112 N1      4.115000   -3.367000   47.943000 NA   68 G      -0.4787 ****
2113 H1      4.560000   -2.519000   47.656000 H    68 G       0.3424 ****
2114 C2      4.911000   -4.484000   48.092000 CA   68 G       0.7657 ****
2115 N2      6.215000   -4.316000   47.833000 N2   68 G      -0.9672 ****
2116 H21     6.670000   -3.466000   47.531000 H    68 G       0.4364 ****
2117 H22     6.803000   -5.131000   47.931000 H    68 G       0.4364 ****
2118 N3      4.442000   -5.671000   48.468000 NC   68 G      -0.6323 ****
2119 C4      3.099000   -5.647000   48.685000 CB   68 G       0.1222 ****
2120 C3'     2.191000  -10.268000   50.036000 CT   68 G       0.2022 ****
2121 H3'     1.346000  -10.782000   50.494000 H1   68 G       0.0615 ****
2122 C2'     2.226000   -8.816000   50.516000 CT   68 G       0.0670 ****
2123 H2'     1.437000   -8.656000   51.251000 H1   68 G       0.0972 ****
2124 O2'     3.496000   -8.541000   51.113000 OH   68 G      -0.6139 ****
2125 HO2'    3.479000   -7.625000   51.400000 HO   68 G       0.4186 ****
2126 O3'     3.416000  -10.874000   50.425000 OS   68 G      -0.5246 ****
2127 P       3.513000   -8.807000   51.809000 P    69 U       1.1662 ****
2128 OP1     3.749000  -10.244000   52.074000 O2   69 U      -0.7760 ****
2129 OP2     2.422000   -8.149000   52.562000 O2   69 U      -0.7760 ****
2130 O5'     4.927000   -8.093000   52.038000 OS   69 U      -0.4989 ****
2131 C5'     5.953000   -8.240000   51.040000 CI   69 U       0.0558 ****
2132 H5'     5.597000   -7.841000   50.090000 H1   69 U       0.0679 ****
2133 H5''    6.197000   -9.296000   50.920000 H1   69 U       0.0679 ****
2134 C4'     7.202000   -7.484000   51.463000 CT   69 U       0.1065 ****
2135 H4'     8.063000   -7.870000   50.917000 H1   69 U       0.1174 ****
2136 O4'     7.085000   -6.096000   51.025000 OS   69 U      -0.3548 ****
2137 C1'     6.805000   -5.258000   52.137000 CT   69 U       0.0674 ****
2138 H1'     7.599000   -4.518000   52.244000 H2   69 U       0.1824 ****
2139 N1      5.574000   -4.401000   51.836000 N*   69 U       0.0418 ****
2140 C6      4.291000   -4.861000   51.978000 CS   69 U      -0.1126 ****
2141 H6      4.114000   -5.871000   52.317000 H4   69 U       0.2188 ****
2142 C5      3.239000   -4.062000   51.756000 CS   69 U      -0.3635 ****
2143 H5      2.226000   -4.448000   51.875000 HA   69 U       0.1811 ****
2144 C4      3.425000   -2.690000   51.360000 C    69 U       0.5952 ****
2145 O4      2.523000   -1.885000   51.135000 O    69 U      -0.5761 ****
2146 N3      4.747000   -2.313000   51.241000 NA   69 U      -0.3549 ****
2147 H3      4.939000   -1.283000   50.943000 H    69 U       0.3154 ****
2148 C2      5.851000   -3.112000   51.463000 C    69 U       0.4687 ****
2149 O2      6.987000   -2.687000   51.332000 O    69 U      -0.5477 ****
2150 C3'     7.444000   -7.390000   52.971000 CT   69 U       0.2022 ****
2151 H3'     7.027000   -8.269000   53.462000 H1   69 U       0.0615 ****
2152 C2'     6.635000   -6.153000   53.366000 CT   69 U       0.0670 ****
2153 H2'     5.875000   -6.433000   54.096000 H1   69 U       0.0972 ****
2154 O2'     7.507000   -5.175000   53.939000 OH   69 U      -0.6139 ****
2155 HO2'    6.965000   -4.418000   54.173000 HO   69 U       0.4186 ****
2156 O3'     8.784000   -7.172000   53.386000 OS   69 U      -0.5246 ****
2157 P       7.714000   -5.513000   54.619000 P    70 U       1.1662 ****
2158 OP1     8.689000   -6.595000   54.884000 O2   70 U      -0.7760 ****
2159 OP2     6.441000   -5.549000   55.372000 O2   70 U      -0.7760 ****
2160 O5'     8.518000   -4.149000   54.848000 OS   70 U      -0.4989 ****
2161 C5'     9.462000   -3.718000   53.850000 CI   70 U       0.0558 ****
2162 H5'     8.946000   -3.574000   52.900000 H1   70 U       0.0679 ****
2163 H5''   10.237000   -4.475000   53.730000 H1   70 U       0.0679 ****
2164 C4'    10.104000   -2.407000   54.273000 CT   70 U       0.1065 ****
2165 H4'    11.037000   -2.267000   53.727000 H1   70 U       0.1174 ****
2166 O4'     9.255000   -1.303000   53.835000 OS   70 U      -0.3548 ****
2167 C1'     8.567000   -0.748000   54.947000 CT   70 U       0.0674 ****
2168 H1'     8.836000    0.303000   55.054000 H2   70 U       0.1824 ****
2169 N1      7.068000   -0.692000   54.646000 N*   70 U       0.0418 ****
2170 C6      6.237000   -1.772000   54.788000 CS   70 U      -0.1126 ****
2171 H6      6.634000   -2.718000   55.127000 H4   70 U       0.2188 ****
2172 C5      4.920000   -1.668000   54.566000 CS   70 U      -0.3635 ****
2173 H5      4.277000   -2.541000   54.685000 HA   70 U       0.1811 ****
2174 C4      4.336000   -0.413000   54.170000 C    70 U       0.5952 ****
2175 O4      3.141000   -0.224000   53.945000 O    70 U      -0.5761 ****
2176 N3      5.245000    0.618000   54.051000 NA   70 U      -0.3549 ****
2177 H3      4.850000    1.589000   53.753000 H    70 U       0.3154 ****
2178 C2      6.605000    0.542000   54.273000 C    70 U       0.4687 ****
2179 O2      7.331000    1.513000   54.142000 O    70 U      -0.5477 ****
2180 C3'    10.256000   -2.197000   55.781000 CT   70 U       0.2022 ****
2181 H3'    10.380000   -3.162000   56.272000 H1   70 U       0.0615 ****
2182 C2'     8.907000   -1.593000   56.176000 CT   70 U       0.0670 ****
2183 H2'     8.419000   -2.239000   56.906000 H1   70 U       0.0972 ****
2184 O2'     9.113000   -0.299000   56.749000 OH   70 U      -0.6139 ****
2185 HO2'    8.248000    0.045000   56.983000 HO   70 U       0.4186 ****
2186 O3'    11.267000   -1.290000   56.196000 OS   70 U      -0.5246 ****
2187 P       9.490000   -0.466000   57.466000 P    71 A       1.1662 ****
2188 OP1    10.895000   -0.842000   57.741000 O2   71 A      -0.7760 ****
2189 OP2     8.437000   -1.184000   58.219000 O2   71 A      -0.7760 ****
2190 O5'     9.422000    1.117000   57.686000 OS   71 A      -0.4989 ****
2191 C5'     9.984000    1.986000   56.684000 CI   71 A       0.0558 ****
2192 H5'     9.478000    1.820000   55.733000 H1   71 A       0.0679 ****
2193 H5''   11.047000    1.771000   56.571000 H1   71 A       0.0679 ****
2194 C4'     9.809000    3.438000   57.097000 CT   71 A       0.1065 ****
2195 H4'    10.518000    4.060000   56.551000 H1   71 A       0.1174 ****
2196 O4'     8.498000    3.900000   56.650000 OS   71 A      -0.3548 ****
2197 C1'     7.614000    3.999000   57.757000 CT   71 A       0.0394 ****
2198 H1'     7.267000    5.027000   57.855000 H2   71 A       0.2007 ****
2199 N9      6.335000    3.234000   57.457000 N*   71 A      -0.0251 ****
2200 C8      6.040000    1.899000   57.546000 C5   71 A       0.2006 ****
2201 H8      6.794000    1.200000   57.880000 H5   71 A       0.1553 ****
2202 N7      4.805000    1.611000   57.261000 NB   71 A      -0.6073 ****
2203 C5      4.234000    2.842000   56.959000 CB   71 A       0.0515 ****
2204 C6      2.940000    3.215000   56.577000 CA   71 A       0.7009 ****
2205 N6      1.934000    2.343000   56.423000 N2   71 A      -0.9019 ****
2206 H61     1.020000    2.671000   56.145000 H    71 A       0.4115 ****
2207 H62     2.090000    1.359000   56.586000 H    71 A       0.4115 ****
2208 N1      2.713000    4.517000   56.356000 NC   71 A      -0.7615 ****
2209 C2      3.715000    5.378000   56.510000 CQ   71 A       0.5875 ****
2210 H2      3.553000    6.432000   56.337000 H5   71 A       0.0473 ****
2211 N3      4.965000    5.147000   56.864000 NC   71 A      -0.6997 ****
2212 C4      5.167000    3.830000   57.080000 CB   71 A       0.3053 ****
2213 C3'     9.815000    3.707000   58.603000 CT   71 A       0.2022 ****
2214 H3'    10.441000    2.967000   59.102000 H1   71 A       0.0615 ****
2215 C2'     8.352000    3.483000   58.993000 CT   71 A       0.0670 ****
2216 H2'     8.291000    2.679000   59.728000 H1   71 A       0.0972 ****
2217 O2'     7.819000    4.684000   59.556000 OH   71 A      -0.6139 ****
2218 HO2'    6.905000    4.504000   59.787000 HO   71 A       0.4186 ****
2219 O3'    10.167000    5.020000   59.011000 OS   71 A      -0.5246 ****
2220 P       8.238000    4.735000   60.276000 P    72 A       1.1662 ****
2221 OP1     9.623000    5.178000   60.551000 O2   72 A      -0.7760 ****
2222 OP2     7.739000    3.562000   61.029000 O2   72 A      -0.7760 ****
2223 O5'     7.325000    6.030000   60.496000 OS   72 A      -0.4989 ****
2224 C5'     7.329000    7.065000   59.494000 CI   72 A       0.0558 ****
2225 H5'     6.993000    6.652000   58.543000 H1   72 A       0.0679 ****
2226 H5''    8.339000    7.458000   59.381000 H1   72 A       0.0679 ****
2227 C4'     6.397000    8.192000   59.907000 CT   72 A       0.1065 ****
2228 H4'     6.658000    9.099000   59.361000 H1   72 A       0.1174 ****
2229 O4'     5.044000    7.873000   59.460000 OS   72 A      -0.3548 ****
2230 C1'     4.247000    7.478000   60.567000 CT   72 A       0.0394 ****
2231 H1'     3.399000    8.156000   60.665000 H2   72 A       0.2007 ****
2232 N9      3.584000    6.144000   60.267000 N*   72 A      -0.0251 ****
2233 C8      4.057000    4.861000   60.356000 C5   72 A       0.2006 ****
2234 H8      5.068000    4.680000   60.690000 H5   72 A       0.1553 ****
2235 N7      3.173000    3.952000   60.071000 NB   72 A      -0.6073 ****
2236 C5      2.028000    4.679000   59.769000 CB   72 A       0.0515 ****
2237 C6      0.737000    4.294000   59.387000 CA   72 A       0.7009 ****
2238 N6      0.362000    3.017000   59.233000 N2   72 A      -0.9019 ****
2239 H61    -0.584000    2.799000   58.955000 H    72 A       0.4115 ****
2240 H62     1.025000    2.273000   59.396000 H    72 A       0.4115 ****
2241 N1     -0.158000    5.267000   59.166000 NC   72 A      -0.7615 ****
2242 C2      0.221000    6.532000   59.320000 CQ   72 A       0.5875 ****
2243 H2     -0.485000    7.332000   59.147000 H5   72 A       0.0473 ****
2244 N3      1.398000    7.014000   59.674000 NC   72 A      -0.6997 ****
2245 C4      2.279000    6.014000   59.890000 CB   72 A       0.3053 ****
2246 C3'     6.257000    8.422000   61.413000 CT   72 A       0.2022 ****
2247 H3'     7.183000    8.138000   61.912000 H1   72 A       0.0615 ****
2248 C2'     5.147000    7.443000   61.803000 CT   72 A       0.0670 ****
2249 H2'     5.529000    6.734000   62.538000 H1   72 A       0.0972 ****
2250 O2'     4.049000    8.166000   62.366000 OH   72 A      -0.6139 ****
2251 HO2'    3.377000    7.520000   62.597000 HO   72 A       0.4186 ****
2252 O3'     5.844000    9.717000   61.821000 OS   72 A      -0.5246 ****
2253 P       4.371000    8.414000   63.049000 P    73 U       1.1662 ****
2254 OP1     5.304000    9.532000   63.314000 O2   73 U      -0.7760 ****
2255 OP2     4.586000    7.158000   63.802000 O2   73 U      -0.7760 ****
2256 O5'     2.908000    9.018000   63.278000 OS   73 U      -0.4989 ****
2257 C5'     2.348000    9.891000   62.280000 CI   73 U       0.0558 ****
2258 H5'     2.278000    9.360000   61.330000 H1   73 U       0.0679 ****
2259 H5''    2.988000   10.765000   62.160000 H1   73 U       0.0679 ****
2260 C4'     0.960000   10.343000   62.703000 CT   73 U       0.1065 ****
2261 H4'     0.689000   11.247000   62.157000 H1   73 U       0.1174 ****
2262 O4'    -0.014000    9.347000   62.265000 OS   73 U      -0.3548 ****
2263 C1'    -0.466000    8.587000   63.377000 CT   73 U       0.0674 ****
2264 H1'    -1.545000    8.705000   63.484000 H2   73 U       0.1824 ****
2265 N1     -0.311000    7.095000   63.076000 N*   73 U       0.0418 ****
2266 C6      0.876000    6.425000   63.218000 CS   73 U      -0.1126 ****
2267 H6      1.756000    6.950000   63.557000 H4   73 U       0.2188 ****
2268 C5      0.959000    5.106000   62.996000 CS   73 U      -0.3635 ****
2269 H5      1.913000    4.592000   63.115000 HA   73 U       0.1811 ****
2270 C4     -0.202000    4.351000   62.600000 C    73 U       0.5952 ****
2271 O4     -0.221000    3.142000   62.375000 O    73 U      -0.5761 ****
2272 N3     -1.351000    5.105000   62.481000 NA   73 U      -0.3549 ****
2273 H3     -2.257000    4.577000   62.183000 H    73 U       0.3154 ****
2274 C2     -1.467000    6.463000   62.703000 C    73 U       0.4687 ****
2275 O2     -2.531000    7.045000   62.572000 O    73 U      -0.5477 ****
2276 C3'     0.730000   10.463000   64.211000 CT   73 U       0.2022 ****
2277 H3'     1.668000   10.722000   64.702000 H1   73 U       0.0615 ****
2278 C2'     0.322000    9.043000   64.606000 CT   73 U       0.0670 ****
2279 H2'     1.031000    8.651000   65.336000 H1   73 U       0.0972 ****
2280 O2'    -0.988000    9.064000   65.179000 OH   73 U      -0.6139 ****
2281 HO2'   -1.207000    8.160000   65.413000 HO   73 U       0.4186 ****
2282 O3'    -0.311000   11.336000   64.626000 OS   73 U      -0.5246 ****
2283 P      -0.867000    9.442000   65.859000 P    74 U       1.1662 ****
2284 OP1    -0.686000   10.887000   66.124000 O2   74 U      -0.7760 ****
2285 OP2    -0.008000    8.501000   66.612000 O2   74 U      -0.7760 ****
2286 O5'    -2.425000    9.159000   66.088000 OS   74 U      -0.4989 ****
2287 C5'    -3.368000    9.592000   65.090000 CI   74 U       0.0558 ****
2288 H5'    -3.140000    9.107000   64.140000 H1   74 U       0.0679 ****
2289 H5''   -3.301000   10.673000   64.970000 H1   74 U       0.0679 ****
2290 C4'    -4.780000    9.222000   65.513000 CT   74 U       0.1065 ****
2291 H4'    -5.496000    9.837000   64.967000 H1   74 U       0.1174 ****
2292 O4'    -5.062000    7.858000   65.075000 OS   74 U      -0.3548 ****
2293 C1'    -5.032000    6.974000   66.187000 CT   74 U       0.0674 ****
2294 H1'    -6.003000    6.491000   66.294000 H2   74 U       0.1824 ****
2295 N1     -4.095000    5.803000   65.886000 N*   74 U       0.0418 ****
2296 C6     -2.734000    5.879000   66.028000 CS   74 U      -0.1126 ****
2297 H6     -2.277000    6.798000   66.367000 H4   74 U       0.2188 ****
2298 C5     -1.952000    4.814000   65.806000 CS   74 U      -0.3635 ****
2299 H5     -0.871000    4.898000   65.925000 HA   74 U       0.1811 ****
2300 C4     -2.520000    3.552000   65.410000 C    74 U       0.5952 ****
2301 O4     -1.883000    2.524000   65.185000 O    74 U      -0.5761 ****
2302 N3     -3.895000    3.567000   65.291000 NA   74 U      -0.3549 ****
2303 H3     -4.372000    2.633000   64.993000 H    74 U       0.3154 ****
2304 C2     -4.726000    4.646000   65.513000 C    74 U       0.4687 ****
2305 O2     -5.936000    4.561000   65.382000 O    74 U      -0.5477 ****
2306 C3'    -5.039000    9.199000   67.021000 CT   74 U       0.2022 ****
2307 H3'    -4.389000    9.924000   67.512000 H1   74 U       0.0615 ****
2308 C2'    -4.614000    7.784000   67.416000 CT   74 U       0.0670 ****
2309 H2'    -3.806000    7.836000   68.146000 H1   74 U       0.0972 ****
2310 O2'    -5.728000    7.094000   67.989000 OH   74 U      -0.6139 ****
2311 HO2'   -5.424000    6.214000   68.223000 HO   74 U       0.4186 ****
2312 O3'    -6.386000    9.371000   67.436000 OS   74 U      -0.5246 ****
2313 P      -5.830000    7.477000   68.669000 P    75 U       1.1662 ****
2314 OP1    -6.458000    8.791000   68.934000 O2   75 U      -0.7760 ****
2315 OP2    -4.599000    7.149000   69.422000 O2   75 U      -0.7760 ****
2316 O5'    -6.989000    6.398000   68.898000 OS   75 U      -0.4989 ****
2317 C5'    -8.016000    6.252000   67.900000 CI   75 U       0.0558 ****
2318 H5'    -7.562000    5.968000   66.950000 H1   75 U       0.0679 ****
2319 H5''   -8.544000    7.198000   67.780000 H1   75 U       0.0679 ****
2320 C4'    -9.004000    5.178000   68.323000 CT   75 U       0.1065 ****
2321 H4'    -9.939000    5.308000   67.777000 H1   75 U       0.1174 ****
2322 O4'    -8.504000    3.878000   67.885000 OS   75 U      -0.3548 ****
2323 C1'    -8.002000    3.151000   68.997000 CT   75 U       0.0674 ****
2324 H1'    -8.558000    2.219000   69.104000 H2   75 U       0.1824 ****
2325 N1     -6.581000    2.671000   68.696000 N*   75 U       0.0418 ****
2326 C6     -5.477000    3.470000   68.838000 CS   75 U      -0.1126 ****
2327 H6     -5.589000    4.490000   69.177000 H4   75 U       0.2188 ****
2328 C5     -4.243000    2.997000   68.616000 CS   75 U      -0.3635 ****
2329 H5     -3.379000    3.651000   68.735000 HA   75 U       0.1811 ****
2330 C4     -4.040000    1.628000   68.220000 C    75 U       0.5952 ****
2331 O4     -2.949000    1.107000   67.995000 O    75 U      -0.5761 ****
2332 N3     -5.204000    0.897000   68.101000 NA   75 U      -0.3549 ****
2333 H3     -5.101000   -0.146000   67.803000 H    75 U       0.3154 ****
2334 C2     -6.487000    1.356000   68.323000 C    75 U       0.4687 ****
2335 O2     -7.459000    0.631000   68.192000 O    75 U      -0.5477 ****
2336 C3'    -9.210000    5.019000   69.831000 CT   75 U       0.2022 ****
2337 H3'    -9.055000    5.980000   70.322000 H1   75 U       0.0615 ****
2338 C2'    -8.088000    4.057000   70.226000 CT   75 U       0.0670 ****
2339 H2'    -7.436000    4.538000   70.956000 H1   75 U       0.0972 ****
2340 O2'    -8.653000    2.875000   70.799000 OH   75 U      -0.6139 ****
2341 HO2'   -7.921000    2.299000   71.033000 HO   75 U       0.4186 ****
2342 O3'   -10.436000    4.436000   70.246000 OS   75 U      -0.5246 ****
2343 P      -8.743000    3.158000   71.388000 P    76 C       1.1662 ****
2344 OP1    -9.961000    3.976000   71.580000 O2   76 C      -0.7760 ****
2345 OP2    -7.554000    3.511000   72.196000 O2   76 C      -0.7760 ****
2346 O5'    -9.206000    1.644000   71.619000 OS   76 C      -0.4989 ****
2347 C5'    -9.967000    0.982000   70.592000 CI   76 C       0.0558 ****
2348 H5'    -9.386000    0.951000   69.671000 H1   76 C       0.0679 ****
2349 H5''  -10.895000    1.527000   70.418000 H1   76 C       0.0679 ****
2350 C4'   -10.296000   -0.438000   71.022000 CT   76 C       0.1065 ****
2351 H4'   -11.140000   -0.809000   70.440000 H1   76 C       0.1174 ****
2352 O4'    -9.187000   -1.312000   70.653000 OS   76 C      -0.3548 ****
2353 C1'    -8.442000   -1.667000   71.809000 CT   76 C       0.0066 ****
2354 H1'    -8.454000   -2.750000   71.933000 H2   76 C       0.2029 ****
2355 N1     -7.007000   -1.359000   71.548000 N*   76 C      -0.0484 ****
2356 C6     -6.522000   -0.097000   71.691000 C4   76 C       0.0053 ****
2357 H6     -7.179000    0.703000   71.999000 H4   76 C       0.1958 ****
2358 C5     -5.213000    0.182000   71.452000 C4   76 C      -0.5215 ****
2359 H5     -4.841000    1.199000   71.572000 HA   76 C       0.1928 ****
2360 C4     -4.383000   -0.910000   71.046000 CA   76 C       0.8185 ****
2361 N4     -3.102000   -0.711000   70.798000 N2   76 C      -0.9530 ****
2362 H41    -2.549000   -1.508000   70.514000 H    76 C       0.4234 ****
2363 H42    -2.702000    0.212000   70.892000 H    76 C       0.4234 ****
2364 N3     -4.866000   -2.142000   70.909000 NC   76 C      -0.7584 ****
2365 C2     -6.178000   -2.399000   71.153000 C    76 C       0.7538 ****
2366 O2     -6.666000   -3.534000   71.036000 O    76 C      -0.6252 ****
2367 C3'   -10.468000   -0.655000   72.527000 CT   76 C       0.2022 ****
2368 H3'   -10.845000    0.259000   72.986000 H1   76 C       0.0615 ****
2369 C2'    -9.035000   -0.909000   72.999000 CT   76 C       0.0670 ****
2370 H2'    -8.753000   -0.153000   73.731000 H1   76 C       0.0972 ****
2371 O2'    -8.952000   -2.205000   73.597000 OH   76 C      -0.6139 ****
2372 HO2'   -8.043000   -2.327000   73.879000 HO   76 C       0.4186 ****
2373 O3'   -11.250000   -1.773000   72.922000 OS   76 C      -0.5246 ****
2374 P      -9.226000   -2.189000   74.289000 P    77 U       1.1662 ****
2375 OP1   -10.681000   -2.213000   74.554000 O2   77 U      -0.7760 ****
2376 OP2    -8.415000   -1.206000   75.042000 O2   77 U      -0.7760 ****
2377 O5'    -8.726000   -3.691000   74.518000 OS   77 U      -0.4989 ****
2378 C5'    -9.022000   -4.686000   73.520000 CI   77 U       0.0558 ****
2379 H5'    -8.574000   -4.392000   72.570000 H1   77 U       0.0679 ****
2380 H5''  -10.102000   -4.772000   73.400000 H1   77 U       0.0679 ****
2381 C4'    -8.456000   -6.032000   73.943000 CT   77 U       0.1065 ****
2382 H4'    -8.964000   -6.827000   73.397000 H1   77 U       0.1174 ****
2383 O4'    -7.066000   -6.118000   73.505000 OS   77 U      -0.3548 ****
2384 C1'    -6.196000   -5.964000   74.617000 CT   77 U       0.0674 ****
2385 H1'    -5.580000   -6.857000   74.724000 H2   77 U       0.1824 ****
2386 N1     -5.168000   -4.871000   74.316000 N*   77 U       0.0418 ****
2387 C6     -5.435000   -3.535000   74.458000 CS   77 U      -0.1126 ****
2388 H6     -6.409000   -3.212000   74.797000 H4   77 U       0.2188 ****
2389 C5     -4.491000   -2.610000   74.236000 CS   77 U      -0.3635 ****
2390 H5     -4.726000   -1.553000   74.355000 HA   77 U       0.1811 ****
2391 C4     -3.162000   -2.995000   73.840000 C    77 U       0.5952 ****
2392 O4     -2.234000   -2.220000   73.615000 O    77 U      -0.5761 ****
2393 N3     -2.982000   -4.359000   73.721000 NA   77 U      -0.3549 ****
2394 H3     -1.991000   -4.699000   73.423000 H    77 U       0.3154 ****
2395 C2     -3.933000   -5.333000   73.943000 C    77 U       0.4687 ****
2396 O2     -3.679000   -6.519000   73.812000 O    77 U      -0.5477 ****
2397 C3'    -8.398000   -6.284000   75.451000 CT   77 U       0.2022 ****
2398 H3'    -9.206000   -5.744000   75.942000 H1   77 U       0.0615 ****
2399 C2'    -7.056000   -5.665000   75.846000 CT   77 U       0.0670 ****
2400 H2'    -7.222000   -4.872000   76.576000 H1   77 U       0.0972 ****
2401 O2'    -6.216000   -6.671000   76.419000 OH   77 U      -0.6139 ****
2402 HO2'   -5.388000   -6.245000   76.653000 HO   77 U       0.4186 ****
2403 O3'    -8.378000   -7.642000   75.866000 OS   77 U      -0.5246 ****
2404 P      -6.520000   -6.658000   77.013000 P    78 G       1.1662 ****
2405 OP1    -7.767000   -7.434000   77.199000 O2   78 G      -0.7760 ****
2406 OP2    -6.355000   -5.434000   77.828000 O2   78 G      -0.7760 ****
2407 O5'    -5.330000   -7.704000   77.240000 OS   78 G      -0.4989 ****
2408 C5'    -5.039000   -8.664000   76.207000 CI   78 G       0.0558 ****
2409 H5'    -4.771000   -8.141000   75.289000 H1   78 G       0.0679 ****
2410 H5''   -5.917000   -9.285000   76.028000 H1   78 G       0.0679 ****
2411 C4'    -3.880000   -9.551000   76.633000 CT   78 G       0.1065 ****
2412 H4'    -3.889000  -10.469000   76.045000 H1   78 G       0.1174 ****
2413 O4'    -2.626000   -8.896000   76.270000 OS   78 G      -0.3548 ****
2414 C1'    -1.999000   -8.369000   77.429000 CT   78 G       0.0191 ****
2415 H1'    -1.017000   -8.827000   77.551000 H2   78 G       0.2006 ****
2416 N9     -1.690000   -6.934000   77.176000 N*   78 G       0.0492 ****
2417 C8     -2.517000   -5.833000   77.272000 CP   78 G       0.1374 ****
2418 H8     -3.548000   -5.957000   77.569000 H5   78 G       0.1640 ****
2419 N7     -1.931000   -4.699000   76.977000 NB   78 G      -0.5709 ****
2420 C5     -0.629000   -5.068000   76.662000 CB   78 G       0.1744 ****
2421 C6      0.481000   -4.277000   76.262000 C    78 G       0.4770 ****
2422 O6      0.541000   -3.059000   76.101000 O    78 G      -0.5597 ****
2423 N1      1.617000   -5.065000   76.043000 NA   78 G      -0.4787 ****
2424 H1      2.453000   -4.597000   75.756000 H    78 G       0.3424 ****
2425 C2      1.676000   -6.436000   76.192000 CA   78 G       0.7657 ****
2426 N2      2.862000   -7.004000   75.933000 N2   78 G      -0.9672 ****
2427 H21     3.706000   -6.539000   75.631000 H    78 G       0.4364 ****
2428 H22     2.911000   -8.008000   76.031000 H    78 G       0.4364 ****
2429 N3      0.637000   -7.175000   76.568000 NC   78 G      -0.6323 ****
2430 C4     -0.476000   -6.424000   76.785000 CB   78 G       0.1222 ****
2431 C3'    -3.755000   -9.805000   78.136000 CT   78 G       0.2022 ****
2432 H3'    -4.743000   -9.775000   78.594000 H1   78 G       0.0615 ****
2433 C2'    -2.934000   -8.606000   78.616000 CT   78 G       0.0670 ****
2434 H2'    -3.509000   -8.043000   79.351000 H1   78 G       0.0972 ****
2435 O2'    -1.720000   -9.067000   79.213000 OH   78 G      -0.6139 ****
2436 HO2'   -1.235000   -8.289000   79.500000 HO   78 G       0.4186 ****
2437 O3'    -3.058000  -10.980000   78.525000 OS   78 G      -0.5246 ****
2438 P      -1.894000   -9.100000   79.818000 P    79 C       1.1662 ****
2439 OP1    -2.533000  -10.422000   80.010000 O2   79 C      -0.7760 ****
2440 OP2    -2.412000   -7.973000   80.626000 O2   79 C      -0.7760 ****
2441 O5'    -0.330000   -9.346000   80.049000 OS   79 C      -0.4989 ****
2442 C5'     0.432000  -10.006000   79.022000 CI   79 C       0.0558 ****
2443 H5'     0.381000   -9.426000   78.101000 H1   79 C       0.0679 ****
2444 H5''    0.023000  -11.001000   78.848000 H1   79 C       0.0679 ****
2445 C4'     1.885000  -10.132000   79.452000 CT   79 C       0.1065 ****
2446 H4'     2.370000  -10.915000   78.870000 H1   79 C       0.1174 ****
2447 O4'     2.594000   -8.910000   79.083000 OS   79 C      -0.3548 ****
2448 C1'     2.839000   -8.123000   80.239000 CT   79 C       0.0066 ****
2449 H1'     3.913000   -7.983000   80.363000 H2   79 C       0.2029 ****
2450 N1      2.333000   -6.746000   79.978000 N*   79 C      -0.0484 ****
2451 C6      1.015000   -6.443000   80.121000 C4   79 C       0.0053 ****
2452 H6      0.316000   -7.207000   80.429000 H4   79 C       0.1958 ****
2453 C5      0.555000   -5.186000   79.882000 C4   79 C      -0.5215 ****
2454 H5     -0.505000   -4.962000   80.002000 HA   79 C       0.1928 ****
2455 C4      1.519000   -4.211000   79.476000 CA   79 C       0.8185 ****
2456 N4      1.141000   -2.970000   79.228000 N2   79 C      -0.9530 ****
2457 H41     1.852000   -2.311000   78.944000 H    79 C       0.4234 ****
2458 H42     0.171000   -2.705000   79.322000 H    79 C       0.4234 ****
2459 N3      2.806000   -4.515000   79.339000 NC   79 C      -0.7584 ****
2460 C2      3.246000   -5.779000   79.583000 C    79 C       0.7538 ****
2461 O2      4.438000   -6.101000   79.466000 O    79 C      -0.6252 ****
2462 C3'     2.123000  -10.271000   80.957000 CT   79 C       0.2022 ****
2463 H3'     1.271000  -10.773000   81.416000 H1   79 C       0.0615 ****
2464 C2'     2.173000   -8.817000   81.429000 CT   79 C       0.0670 ****
2465 H2'     1.384000   -8.644000   82.161000 H1   79 C       0.0972 ****
2466 O2'     3.445000   -8.552000   82.027000 OH   79 C      -0.6139 ****
2467 HO2'    3.437000   -7.635000   82.309000 HO   79 C       0.4186 ****
2468 O3'     3.340000  -10.888000   81.352000 OS   79 C      -0.5246 ****
2469 P       3.322000   -8.681000   82.628000 P    80 C       1.1662 ****
2470 OP1     3.499000  -10.138000   82.820000 O2   80 C      -0.7760 ****
2471 OP2     2.278000   -8.013000   83.436000 O2   80 C      -0.7760 ****
2472 O5'     4.771000   -8.043000   82.859000 OS   80 C      -0.4989 ****
2473 C5'     5.770000   -8.187000   81.832000 CI   80 C       0.0558 ****
2474 H5'     5.413000   -7.727000   80.911000 H1   80 C       0.0679 ****
2475 H5''    5.963000   -9.245000   81.658000 H1   80 C       0.0679 ****
2476 C4'     7.060000   -7.508000   82.262000 CT   80 C       0.1065 ****
2477 H4'     7.891000   -7.905000   81.680000 H1   80 C       0.1174 ****
2478 O4'     6.996000   -6.097000   81.893000 OS   80 C      -0.3548 ****
2479 C1'     6.778000   -5.301000   83.049000 CT   80 C       0.0066 ****
2480 H1'     7.606000   -4.603000   83.173000 H2   80 C       0.2029 ****
2481 N1      5.608000   -4.416000   82.788000 N*   80 C      -0.0484 ****
2482 C6      4.335000   -4.874000   82.931000 C4   80 C       0.0053 ****
2483 H6      4.159000   -5.894000   83.239000 H4   80 C       0.1958 ****
2484 C5      3.269000   -4.064000   82.692000 C4   80 C      -0.5215 ****
2485 H5      2.255000   -4.448000   82.812000 HA   80 C       0.1928 ****
2486 C4      3.553000   -2.723000   82.286000 CA   80 C       0.8185 ****
2487 N4      2.565000   -1.883000   82.038000 N2   80 C      -0.9530 ****
2488 H41     2.807000   -0.945000   81.754000 H    80 C       0.4234 ****
2489 H42     1.605000   -2.184000   82.132000 H    80 C       0.4234 ****
2490 N3      4.800000   -2.284000   82.149000 NC   80 C      -0.7584 ****
2491 C2      5.854000   -3.109000   82.393000 C    80 C       0.7538 ****
2492 O2      7.031000   -2.737000   82.276000 O    80 C      -0.6252 ****
2493 C3'     7.336000   -7.496000   83.767000 CT   80 C       0.2022 ****
2494 H3'     6.890000   -8.379000   84.226000 H1   80 C       0.0615 ****
2495 C2'     6.592000   -6.245000   84.239000 CT   80 C       0.0670 ****
2496 H2'     5.835000   -6.526000   84.971000 H1   80 C       0.0972 ****
2497 O2'     7.519000   -5.336000   84.837000 OH   80 C      -0.6139 ****
2498 HO2'    7.017000   -4.568000   85.119000 HO   80 C       0.4186 ****
2499 O3'     8.693000   -7.358000   84.162000 OS   80 C      -0.5246 ****
2500 P       7.511000   -5.517000   85.443000 P    81 G       1.1662 ****
2501 OP1     8.454000   -6.642000   85.629000 O2   81 G      -0.7760 ****
2502 OP2     6.276000   -5.526000   86.258000 O2   81 G      -0.7760 ****
2503 O5'     8.379000   -4.192000   85.670000 OS   81 G      -0.4989 ****
2504 C5'     9.288000   -3.768000   84.637000 CI   81 G       0.0558 ****
2505 H5'     8.732000   -3.576000   83.719000 H1   81 G       0.0679 ****
2506 H5''   10.026000   -4.550000   84.458000 H1   81 G       0.0679 ****
2507 C4'    10.002000   -2.495000   85.063000 CT   81 G       0.1065 ****
2508 H4'    10.912000   -2.375000   84.475000 H1   81 G       0.1174 ****
2509 O4'     9.177000   -1.347000   84.700000 OS   81 G      -0.3548 ****
2510 C1'     8.567000   -0.799000   85.859000 CT   81 G       0.0191 ****
2511 H1'     8.882000    0.237000   85.981000 H2   81 G       0.2006 ****
2512 N9      7.103000   -0.696000   85.606000 N*   81 G       0.0492 ****
2513 C8      6.130000   -1.670000   85.702000 CP   81 G       0.1374 ****
2514 H8      6.397000   -2.673000   85.999000 H5   81 G       0.1640 ****
2515 N7      4.925000   -1.250000   85.407000 NB   81 G      -0.5709 ****
2516 C5      5.106000    0.092000   85.092000 CB   81 G       0.1744 ****
2517 C6      4.167000    1.079000   84.692000 C    81 G       0.4770 ****
2518 O6      2.952000    0.966000   84.531000 O    81 G      -0.5597 ****
2519 N1      4.787000    2.315000   84.473000 NA   81 G      -0.4787 ****
2520 H1      4.205000    3.076000   84.186000 H    81 G       0.3424 ****
2521 C2      6.135000    2.566000   84.622000 CA   81 G       0.7657 ****
2522 N2      6.531000    3.820000   84.363000 N2   81 G      -0.9672 ****
2523 H21     5.952000    4.590000   84.061000 H    81 G       0.4364 ****
2524 H22     7.518000    4.011000   84.461000 H    81 G       0.4364 ****
2525 N3      7.014000    1.641000   84.998000 NC   81 G      -0.6323 ****
2526 C4      6.427000    0.434000   85.215000 CB   81 G       0.1222 ****
2527 C3'    10.236000   -2.336000   86.566000 CT   81 G       0.2022 ****
2528 H3'    10.346000   -3.319000   87.024000 H1   81 G       0.0615 ****
2529 C2'     8.934000   -1.693000   87.046000 CT   81 G       0.0670 ****
2530 H2'     8.457000   -2.341000   87.781000 H1   81 G       0.0972 ****
2531 O2'     9.219000   -0.425000   87.643000 OH   81 G      -0.6139 ****
2532 HO2'    8.381000   -0.055000   87.930000 HO   81 G       0.4186 ****
2533 O3'    11.301000   -1.480000   86.955000 OS   81 G      -0.5246 ****
2534 P       9.276000   -0.593000   88.248000 P    82 C       1.1662 ****
2535 OP1    10.674000   -1.039000   88.440000 O2   82 C      -0.7760 ****
2536 OP2     8.234000   -1.264000   89.056000 O2   82 C      -0.7760 ****
2537 O5'     9.299000    0.990000   88.479000 OS   82 C      -0.4989 ****
2538 C5'     9.845000    1.838000   87.452000 CI   82 C       0.0558 ****
2539 H5'     9.278000    1.705000   86.531000 H1   82 C       0.0679 ****
2540 H5''   10.888000    1.573000   87.278000 H1   82 C       0.0679 ****
2541 C4'     9.765000    3.294000   87.882000 CT   82 C       0.1065 ****
2542 H4'    10.473000    3.885000   87.300000 H1   82 C       0.1174 ****
2543 O4'     8.456000    3.823000   87.513000 OS   82 C      -0.3548 ****
2544 C1'     7.641000    3.956000   88.669000 CT   82 C       0.0066 ****
2545 H1'     7.352000    4.999000   88.793000 H2   82 C       0.2029 ****
2546 N1      6.350000    3.260000   88.408000 N*   82 C      -0.0484 ****
2547 C6      6.236000    1.913000   88.551000 C4   82 C       0.0053 ****
2548 H6      7.090000    1.328000   88.859000 H4   82 C       0.1958 ****
2549 C5      5.056000    1.280000   88.312000 C4   82 C      -0.5215 ****
2550 H5      4.983000    0.199000   88.432000 HA   82 C       0.1928 ****
2551 C4      3.955000    2.097000   87.906000 CA   82 C       0.8185 ****
2552 N4      2.780000    1.548000   87.658000 N2   82 C      -0.9530 ****
2553 H41     2.027000    2.159000   87.374000 H    82 C       0.4234 ****
2554 H42     2.654000    0.551000   87.752000 H    82 C       0.4234 ****
2555 N3      4.075000    3.414000   87.769000 NC   82 C      -0.7584 ****
2556 C2      5.264000    4.028000   88.013000 C    82 C       0.7538 ****
2557 O2      5.415000    5.253000   87.896000 O    82 C      -0.6252 ****
2558 C3'     9.870000    3.549000   89.387000 CT   82 C       0.2022 ****
2559 H3'    10.486000    2.776000   89.846000 H1   82 C       0.0615 ****
2560 C2'     8.423000    3.394000   89.859000 CT   82 C       0.0670 ****
2561 H2'     8.363000    2.589000   90.591000 H1   82 C       0.0972 ****
2562 O2'     7.982000    4.615000   90.457000 OH   82 C      -0.6139 ****
2563 HO2'    7.074000    4.478000   90.739000 HO   82 C       0.4186 ****
2564 O3'    10.309000    4.841000   89.782000 OS   82 C      -0.5246 ****
2565 P       8.249000    4.676000   91.149000 P    83 U       1.1662 ****
2566 OP1     9.640000    5.105000   91.414000 O2   83 U      -0.7760 ****
2567 OP2     7.745000    3.506000   91.902000 O2   83 U      -0.7760 ****
2568 O5'     7.350000    5.979000   91.378000 OS   83 U      -0.4989 ****
2569 C5'     7.356000    7.017000   90.380000 CI   83 U       0.0558 ****
2570 H5'     7.009000    6.609000   89.430000 H1   83 U       0.0679 ****
2571 H5''    8.369000    7.401000   90.260000 H1   83 U       0.0679 ****
2572 C4'     6.438000    8.151000   90.803000 CT   83 U       0.1065 ****
2573 H4'     6.703000    9.057000   90.257000 H1   83 U       0.1174 ****
2574 O4'     5.078000    7.847000   90.365000 OS   83 U      -0.3548 ****
2575 C1'     4.286000    7.456000   91.477000 CT   83 U       0.0674 ****
2576 H1'     3.445000    8.142000   91.584000 H2   83 U       0.1824 ****
2577 N1      3.604000    6.120000   91.176000 N*   83 U       0.0418 ****
2578 C6      4.233000    4.911000   91.318000 CS   83 U      -0.1126 ****
2579 H6      5.258000    4.873000   91.657000 H4   83 U       0.2188 ****
2580 C5      3.585000    3.760000   91.096000 CS   83 U      -0.3635 ****
2581 H5      4.105000    2.810000   91.215000 HA   83 U       0.1811 ****
2582 C4      2.200000    3.759000   90.700000 C    83 U       0.5952 ****
2583 O4      1.526000    2.755000   90.475000 O    83 U      -0.5761 ****
2584 N3      1.648000    5.018000   90.581000 NA   83 U      -0.3549 ****
2585 H3      0.601000    5.068000   90.283000 H    83 U       0.3154 ****
2586 C2      2.289000    6.219000   90.803000 C    83 U       0.4687 ****
2587 O2      1.714000    7.287000   90.672000 O    83 U      -0.5477 ****
2588 C3'     6.311000    8.378000   92.311000 CT   83 U       0.2022 ****
2589 H3'     7.239000    8.084000   92.802000 H1   83 U       0.0615 ****
2590 C2'     5.195000    7.409000   92.706000 CT   83 U       0.0670 ****
2591 H2'     5.576000    6.694000   93.436000 H1   83 U       0.0972 ****
2592 O2'     4.108000    8.140000   93.279000 OH   83 U      -0.6139 ****
2593 HO2'    3.432000    7.501000   93.513000 HO   83 U       0.4186 ****
2594 O3'     5.913000    9.676000   92.726000 OS   83 U      -0.5246 ****
2595 P       4.415000    8.391000   93.959000 P    84 U       1.1662 ****
2596 OP1     5.354000    9.504000   94.224000 O2   84 U      -0.7760 ****
2597 OP2     4.623000    7.134000   94.712000 O2   84 U      -0.7760 ****
2598 O5'     2.955000    9.002000   94.188000 OS   84 U      -0.4989 ****
2599 C5'     2.400000    9.879000   93.190000 CI   84 U       0.0558 ****
2600 H5'     2.327000    9.348000   92.240000 H1   84 U       0.0679 ****
2601 H5''    3.044000   10.749000   93.070000 H1   84 U       0.0679 ****
2602 C4'     1.014000   10.337000   93.613000 CT   84 U       0.1065 ****
2603 H4'     0.748000   11.243000   93.067000 H1   84 U       0.1174 ****
2604 O4'     0.035000    9.347000   93.175000 OS   84 U      -0.3548 ****
2605 C1'    -0.421000    8.590000   94.287000 CT   84 U       0.0674 ****
2606 H1'    -1.499000    8.713000   94.394000 H2   84 U       0.1824 ****
2607 N1     -0.273000    7.097000   93.986000 N*   84 U       0.0418 ****
2608 C6      0.909000    6.420000   94.128000 CS   84 U      -0.1126 ****
2609 H6      1.792000    6.941000   94.467000 H4   84 U       0.2188 ****
2610 C5      0.985000    5.101000   93.906000 CS   84 U      -0.3635 ****
2611 H5      1.937000    4.582000   94.025000 HA   84 U       0.1811 ****
2612 C4     -0.179000    4.352000   93.510000 C    84 U       0.5952 ****
2613 O4     -0.205000    3.143000   93.285000 O    84 U      -0.5761 ****
2614 N3     -1.324000    5.112000   93.391000 NA   84 U      -0.3549 ****
2615 H3     -2.233000    4.589000   93.093000 H    84 U       0.3154 ****
2616 C2     -1.433000    6.470000   93.613000 C    84 U       0.4687 ****
2617 O2     -2.494000    7.058000   93.482000 O    84 U      -0.5477 ****
2618 C3'     0.785000   10.459000   95.121000 CT   84 U       0.2022 ****
2619 H3'     1.724000   10.713000   95.612000 H1   84 U       0.0615 ****
2620 C2'     0.369000    9.041000   95.516000 CT   84 U       0.0670 ****
2621 H2'     1.076000    8.645000   96.246000 H1   84 U       0.0972 ****
2622 O2'    -0.941000    9.070000   96.089000 OH   84 U      -0.6139 ****
2623 HO2'   -1.164000    8.166000   96.323000 HO   84 U       0.4186 ****
2624 O3'    -0.251000   11.337000   95.536000 OS   84 U      -0.5246 ****
2625 P      -0.720000    9.267000   96.678000 P    85 C       1.1662 ****
2626 OP1    -0.475000   10.714000   96.870000 O2   85 C      -0.7760 ****
2627 OP2     0.092000    8.330000   97.486000 O2   85 C      -0.7760 ****
2628 O5'    -2.290000    9.067000   96.909000 OS   85 C      -0.4989 ****
2629 C5'    -3.207000    9.488000   95.882000 CI   85 C       0.0558 ****
2630 H5'    -2.995000    8.946000   94.961000 H1   85 C       0.0679 ****
2631 H5''   -3.091000   10.558000   95.708000 H1   85 C       0.0679 ****
2632 C4'    -4.637000    9.204000   96.312000 CT   85 C       0.1065 ****
2633 H4'    -5.321000    9.821000   95.730000 H1   85 C       0.1174 ****
2634 O4'    -4.977000    7.833000   95.943000 OS   85 C      -0.3548 ****
2635 C1'    -4.993000    7.008000   97.099000 CT   85 C       0.0066 ****
2636 H1'    -5.985000    6.574000   97.223000 H2   85 C       0.2029 ****
2637 N1     -4.122000    5.827000   96.838000 N*   85 C      -0.0484 ****
2638 C6     -2.772000    5.904000   96.981000 C4   85 C       0.0053 ****
2639 H6     -2.314000    6.833000   97.289000 H4   85 C       0.1958 ****
2640 C5     -1.980000    4.825000   96.742000 C4   85 C      -0.5215 ****
2641 H5     -0.899000    4.906000   96.862000 HA   85 C       0.1928 ****
2642 C4     -2.633000    3.620000   96.336000 CA   85 C       0.8185 ****
2643 N4     -1.924000    2.534000   96.088000 N2   85 C      -0.9530 ****
2644 H41    -2.423000    1.703000   95.804000 H    85 C       0.4234 ****
2645 H42    -0.919000    2.550000   96.182000 H    85 C       0.4234 ****
2646 N3     -3.954000    3.553000   96.199000 NC   85 C      -0.7584 ****
2647 C2     -4.729000    4.644000   96.443000 C    85 C       0.7538 ****
2648 O2     -5.964000    4.621000   96.326000 O    85 C      -0.6252 ****
2649 C3'    -4.905000    9.271000   97.817000 CT   85 C       0.2022 ****
2650 H3'    -4.226000    9.991000   98.276000 H1   85 C       0.0615 ****
2651 C2'    -4.547000    7.860000   98.289000 CT   85 C       0.0670 ****
2652 H2'    -3.741000    7.915000   99.021000 H1   85 C       0.0972 ****
2653 O2'    -5.694000    7.252000   98.887000 OH   85 C      -0.6139 ****
2654 HO2'   -5.430000    6.373000   99.169000 HO   85 C       0.4186 ****
2655 O3'    -6.245000    9.524000   98.212000 OS   85 C      -0.5246 ****
2656 P      -5.791000    7.507000   99.579000 P    86 U       1.1662 ****
2657 OP1    -6.412000    8.824000   99.844000 O2   86 U      -0.7760 ****
2658 OP2    -4.562000    7.173000  100.332000 O2   86 U      -0.7760 ****
2659 O5'    -6.955000    6.434000   99.808000 OS   86 U      -0.4989 ****
2660 C5'    -7.983000    6.294000   98.810000 CI   86 U       0.0558 ****
2661 H5'    -7.531000    6.007000   97.860000 H1   86 U       0.0679 ****
2662 H5''   -8.506000    7.243000   98.690000 H1   86 U       0.0679 ****
2663 C4'    -8.977000    5.225000   99.233000 CT   86 U       0.1065 ****
2664 H4'    -9.911000    5.360000   98.687000 H1   86 U       0.1174 ****
2665 O4'    -8.484000    3.922000   98.795000 OS   86 U      -0.3548 ****
2666 C1'    -7.985000    3.193000   99.907000 CT   86 U       0.0674 ****
2667 H1'    -8.546000    2.264000  100.014000 H2   86 U       0.1824 ****
2668 N1     -6.566000    2.706000   99.606000 N*   86 U       0.0418 ****
2669 C6     -5.459000    3.499000   99.748000 CS   86 U      -0.1126 ****
2670 H6     -5.565000    4.519000  100.087000 H4   86 U       0.2188 ****
2671 C5     -4.227000    3.019000   99.526000 CS   86 U      -0.3635 ****
2672 H5     -3.360000    3.668000   99.645000 HA   86 U       0.1811 ****
2673 C4     -4.031000    1.649000   99.130000 C    86 U       0.5952 ****
2674 O4     -2.943000    1.122000   98.905000 O    86 U      -0.5761 ****
2675 N3     -5.200000    0.924000   99.011000 NA   86 U      -0.3549 ****
2676 H3     -5.102000   -0.120000   98.713000 H    86 U       0.3154 ****
2677 C2     -6.480000    1.390000   99.233000 C    86 U       0.4687 ****
2678 O2     -7.456000    0.670000   99.102000 O    86 U      -0.5477 ****
2679 C3'    -9.183000    5.068000  100.741000 CT   86 U       0.2022 ****
2680 H3'    -9.023000    6.027000  101.232000 H1   86 U       0.0615 ****
2681 C2'    -8.067000    4.099000  101.136000 CT   86 U       0.0670 ****
2682 H2'    -7.413000    4.577000  101.866000 H1   86 U       0.0972 ****
2683 O2'    -8.638000    2.920000  101.709000 OH   86 U      -0.6139 ****
2684 HO2'   -7.909000    2.341000  101.943000 HO   86 U       0.4186 ****
2685 O3'   -10.413000    4.491000  101.156000 OS   86 U      -0.5246 ****
2686 P      -8.929000    3.189000  102.389000 P    87 U       1.1662 ****
2687 OP1   -10.163000    3.962000  102.654000 O2   87 U      -0.7760 ****
2688 OP2    -7.714000    3.572000  103.142000 O2   87 U      -0.7760 ****
2689 O5'    -9.329000    1.657000  102.618000 OS   87 U      -0.4989 ****
2690 C5'   -10.118000    0.984000  101.620000 CI   87 U       0.0558 ****
2691 H5'    -9.583000    0.987000  100.670000 H1   87 U       0.0679 ****
2692 H5''  -11.071000    1.500000  101.500000 H1   87 U       0.0679 ****
2693 C4'   -10.377000   -0.453000  102.043000 CT   87 U       0.1065 ****
2694 H4'   -11.236000   -0.844000  101.497000 H1   87 U       0.1174 ****
2695 O4'    -9.258000   -1.283000  101.605000 OS   87 U      -0.3548 ****
2696 C1'    -8.445000   -1.628000  102.717000 CT   87 U       0.0674 ****
2697 H1'    -8.415000   -2.712000  102.824000 H2   87 U       0.1824 ****
2698 N1     -6.987000   -1.271000  102.416000 N*   87 U       0.0418 ****
2699 C6     -6.484000   -0.004000  102.558000 CS   87 U      -0.1126 ****
2700 H6     -7.124000    0.797000  102.897000 H4   87 U       0.2188 ****
2701 C5     -5.189000    0.257000  102.336000 CS   87 U      -0.3635 ****
2702 H5     -4.809000    1.272000  102.455000 HA   87 U       0.1811 ****
2703 C4     -4.283000   -0.790000  101.940000 C    87 U       0.5952 ****
2704 O4     -3.083000   -0.645000  101.715000 O    87 U      -0.5761 ****
2705 N3     -4.875000   -2.031000  101.821000 NA   87 U      -0.3549 ****
2706 H3     -4.229000   -2.857000  101.523000 H    87 U       0.3154 ****
2707 C2     -6.204000   -2.331000  102.043000 C    87 U       0.4687 ****
2708 O2     -6.636000   -3.464000  101.912000 O    87 U      -0.5477 ****
2709 C3'   -10.466000   -0.697000  103.551000 CT   87 U       0.2022 ****
2710 H3'   -10.849000    0.197000  104.042000 H1   87 U       0.0615 ****
2711 C2'    -9.003000   -0.908000  103.946000 CT   87 U       0.0670 ****
2712 H2'    -8.710000   -0.153000  104.676000 H1   87 U       0.0972 ****
2713 O2'    -8.847000   -2.209000  104.519000 OH   87 U      -0.6139 ****
2714 HO2'   -7.920000   -2.303000  104.753000 HO   87 U       0.4186 ****
2715 O3'   -11.189000   -1.846000  103.966000 OS   87 U      -0.5246 ****
2716 P      -9.237000   -2.140000  105.199000 P    88 U       1.1662 ****
2717 OP1   -10.693000   -2.157000  105.464000 O2   88 U      -0.7760 ****
2718 OP2    -8.421000   -1.162000  105.952000 O2   88 U      -0.7760 ****
2719 O5'    -8.745000   -3.646000  105.428000 OS   88 U      -0.4989 ****
2720 C5'    -9.046000   -4.638000  104.430000 CI   88 U       0.0558 ****
2721 H5'    -8.597000   -4.347000  103.480000 H1   88 U       0.0679 ****
2722 H5''  -10.126000   -4.719000  104.310000 H1   88 U       0.0679 ****
2723 C4'    -8.488000   -5.987000  104.853000 CT   88 U       0.1065 ****
2724 H4'    -9.000000   -6.780000  104.307000 H1   88 U       0.1174 ****
2725 O4'    -7.098000   -6.081000  104.415000 OS   88 U      -0.3548 ****
2726 C1'    -6.227000   -5.932000  105.527000 CT   88 U       0.0674 ****
2727 H1'    -5.616000   -6.828000  105.634000 H2   88 U       0.1824 ****
2728 N1     -5.194000   -4.844000  105.226000 N*   88 U       0.0418 ****
2729 C6     -5.454000   -3.507000  105.368000 CS   88 U      -0.1126 ****
2730 H6     -6.426000   -3.179000  105.707000 H4   88 U       0.2188 ****
2731 C5     -4.505000   -2.587000  105.146000 CS   88 U      -0.3635 ****
2732 H5     -4.734000   -1.528000  105.265000 HA   88 U       0.1811 ****
2733 C4     -3.177000   -2.979000  104.750000 C    88 U       0.5952 ****
2734 O4     -2.245000   -2.208000  104.525000 O    88 U      -0.5761 ****
2735 N3     -3.005000   -4.343000  104.631000 NA   88 U      -0.3549 ****
2736 H3     -2.015000   -4.689000  104.333000 H    88 U       0.3154 ****
2737 C2     -3.961000   -5.313000  104.853000 C    88 U       0.4687 ****
2738 O2     -3.713000   -6.500000  104.722000 O    88 U      -0.5477 ****
2739 C3'    -8.430000   -6.240000  106.361000 CT   88 U       0.2022 ****
2740 H3'    -9.236000   -5.695000  106.852000 H1   88 U       0.0615 ****
2741 C2'    -7.085000   -5.628000  106.756000 CT   88 U       0.0670 ****
2742 H2'    -7.247000   -4.834000  107.486000 H1   88 U       0.0972 ****
2743 O2'    -6.251000   -6.638000  107.329000 OH   88 U      -0.6139 ****
2744 HO2'   -5.421000   -6.217000  107.563000 HO   88 U       0.4186 ****
2745 O3'    -8.418000   -7.598000  106.776000 OS   88 U      -0.5246 ****
2746 P      -6.626000   -6.810000  108.046000 P    89 A       1.1662 ****
2747 OP1    -7.836000   -7.616000  108.321000 O2   89 A      -0.7760 ****
2748 OP2    -6.467000   -5.546000  108.799000 O2   89 A      -0.7760 ****
2749 O5'    -5.393000   -7.807000  108.266000 OS   89 A      -0.4989 ****
2750 C5'    -5.113000   -8.802000  107.264000 CI   89 A       0.0558 ****
2751 H5'    -4.903000   -8.313000  106.313000 H1   89 A       0.0679 ****
2752 H5''   -5.977000   -9.458000  107.151000 H1   89 A       0.0679 ****
2753 C4'    -3.908000   -9.631000  107.677000 CT   89 A       0.1065 ****
2754 H4'    -3.911000  -10.575000  107.131000 H1   89 A       0.1174 ****
2755 O4'    -2.694000   -8.954000  107.230000 OS   89 A      -0.3548 ****
2756 C1'    -2.036000   -8.356000  108.337000 CT   89 A       0.0394 ****
2757 H1'    -1.034000   -8.776000  108.435000 H2   89 A       0.2007 ****
2758 N9     -1.764000   -6.890000  108.037000 N*   89 A      -0.0251 ****
2759 C8     -2.570000   -5.786000  108.126000 C5   89 A       0.2006 ****
2760 H8     -3.592000   -5.890000  108.460000 H5   89 A       0.1553 ****
2761 N7     -1.969000   -4.670000  107.841000 NB   89 A      -0.6073 ****
2762 C5     -0.668000   -5.056000  107.539000 CB   89 A       0.0515 ****
2763 C6      0.467000   -4.332000  107.157000 CA   89 A       0.7009 ****
2764 N6      0.479000   -3.001000  107.003000 N2   89 A      -0.9019 ****
2765 H61     1.329000   -2.531000  106.725000 H    89 A       0.4115 ****
2766 H62    -0.363000   -2.466000  107.166000 H    89 A       0.4115 ****
2767 N1      1.594000   -5.022000  106.936000 NC   89 A      -0.7615 ****
2768 C2      1.577000   -6.343000  107.090000 CQ   89 A       0.5875 ****
2769 H2      2.475000   -6.919000  106.917000 H5   89 A       0.0473 ****
2770 N3      0.577000   -7.128000  107.444000 NC   89 A      -0.6997 ****
2771 C4     -0.544000   -6.408000  107.660000 CB   89 A       0.3053 ****
2772 C3'    -3.710000   -9.813000  109.183000 CT   89 A       0.2022 ****
2773 H3'    -4.679000   -9.795000  109.682000 H1   89 A       0.0615 ****
2774 C2'    -2.911000   -8.568000  109.573000 CT   89 A       0.0670 ****
2775 H2'    -3.473000   -7.991000  110.308000 H1   89 A       0.0972 ****
2776 O2'    -1.657000   -8.963000  110.136000 OH   89 A      -0.6139 ****
2777 HO2'   -1.188000   -8.158000  110.367000 HO   89 A       0.4186 ****
2778 O3'    -2.958000  -10.947000  109.591000 OS   89 A      -0.5246 ****
2779 P      -1.942000   -9.090000  110.728000 P    90 C       1.1662 ****
2780 OP1    -2.587000  -10.408000  110.920000 O2   90 C      -0.7760 ****
2781 OP2    -2.454000   -7.961000  111.536000 O2   90 C      -0.7760 ****
2782 O5'    -0.379000   -9.344000  110.959000 OS   90 C      -0.4989 ****
2783 C5'     0.380000  -10.008000  109.932000 CI   90 C       0.0558 ****
2784 H5'     0.331000   -9.428000  109.011000 H1   90 C       0.0679 ****
2785 H5''   -0.035000  -11.001000  109.758000 H1   90 C       0.0679 ****
2786 C4'     1.832000  -10.142000  110.362000 CT   90 C       0.1065 ****
2787 H4'     2.313000  -10.928000  109.780000 H1   90 C       0.1174 ****
2788 O4'     2.547000   -8.923000  109.993000 OS   90 C      -0.3548 ****
2789 C1'     2.797000   -8.137000  111.149000 CT   90 C       0.0066 ****
2790 H1'     3.872000   -8.003000  111.273000 H2   90 C       0.2029 ****
2791 N1      2.298000   -6.758000  110.888000 N*   90 C      -0.0484 ****
2792 C6      0.981000   -6.449000  111.031000 C4   90 C       0.0053 ****
2793 H6      0.278000   -7.208000  111.339000 H4   90 C       0.1958 ****
2794 C5      0.528000   -5.189000  110.792000 C4   90 C      -0.5215 ****
2795 H5     -0.531000   -4.959000  110.912000 HA   90 C       0.1928 ****
2796 C4      1.496000   -4.219000  110.386000 CA   90 C       0.8185 ****
2797 N4      1.125000   -2.976000  110.138000 N2   90 C      -0.9530 ****
2798 H41     1.840000   -2.321000  109.854000 H    90 C       0.4234 ****
2799 H42     0.157000   -2.706000  110.232000 H    90 C       0.4234 ****
2800 N3      2.782000   -4.530000  110.249000 NC   90 C      -0.7584 ****
2801 C2      3.216000   -5.796000  110.493000 C    90 C       0.7538 ****
2802 O2      4.406000   -6.125000  110.376000 O    90 C      -0.6252 ****
2803 C3'     2.070000  -10.282000  111.867000 CT   90 C       0.2022 ****
2804 H3'     1.215000  -10.780000  112.326000 H1   90 C       0.0615 ****
2805 C2'     2.127000   -8.828000  112.339000 CT   90 C       0.0670 ****
2806 H2'     1.339000   -8.652000  113.071000 H1   90 C       0.0972 ****
2807 O2'     3.400000   -8.570000  112.937000 OH   90 C      -0.6139 ****
2808 HO2'    3.397000   -7.652000  113.219000 HO   90 C       0.4186 ****
2809 O3'     3.283000  -10.906000  112.262000 OS   90 C      -0.5246 ****
2810 P       3.434000   -8.859000  113.666000 P    91 A       1.1662 ****
2811 OP1     3.662000  -10.296000  113.941000 O2   91 A      -0.7760 ****
2812 OP2     2.350000   -8.189000  114.419000 O2   91 A      -0.7760 ****
2813 O5'     4.853000   -8.153000  113.886000 OS   91 A      -0.4989 ****
2814 C5'     5.875000   -8.313000  112.884000 CI   91 A       0.0558 ****
2815 H5'     5.518000   -7.918000  111.933000 H1   91 A       0.0679 ****
2816 H5''    6.111000   -9.372000  112.771000 H1   91 A       0.0679 ****
2817 C4'     7.130000   -7.563000  113.297000 CT   91 A       0.1065 ****
2818 H4'     7.987000   -7.958000  112.751000 H1   91 A       0.1174 ****
2819 O4'     7.020000   -6.177000  112.850000 OS   91 A      -0.3548 ****
2820 C1'     6.750000   -5.329000  113.957000 CT   91 A       0.0394 ****
2821 H1'     7.548000   -4.594000  114.055000 H2   91 A       0.2007 ****
2822 N9      5.531000   -4.472000  113.657000 N*   91 A      -0.0251 ****
2823 C8      4.191000   -4.746000  113.746000 C5   91 A       0.2006 ****
2824 H8      3.860000   -5.718000  114.080000 H5   91 A       0.1553 ****
2825 N7      3.426000   -3.734000  113.461000 NB   91 A      -0.6073 ****
2826 C5      4.319000   -2.712000  113.159000 CB   91 A       0.0515 ****
2827 C6      4.133000   -1.378000  112.777000 CA   91 A       0.7009 ****
2828 N6      2.927000   -0.814000  112.623000 N2   91 A      -0.9019 ****
2829 H61     2.855000    0.154000  112.345000 H    91 A       0.4115 ****
2830 H62     2.091000   -1.357000  112.786000 H    91 A       0.4115 ****
2831 N1      5.230000   -0.641000  112.556000 NC   91 A      -0.7615 ****
2832 C2      6.424000   -1.206000  112.710000 CQ   91 A       0.5875 ****
2833 H2      7.321000   -0.630000  112.537000 H5   91 A       0.0473 ****
2834 N3      6.721000   -2.443000  113.064000 NC   91 A      -0.6997 ****
2835 C4      5.600000   -3.163000  113.280000 CB   91 A       0.3053 ****
2836 C3'     7.378000   -7.459000  114.803000 CT   91 A       0.2022 ****
2837 H3'     6.958000   -8.332000  115.302000 H1   91 A       0.0615 ****
2838 C2'     6.579000   -6.214000  115.193000 CT   91 A       0.0670 ****
2839 H2'     5.820000   -6.484000  115.928000 H1   91 A       0.0972 ****
2840 O2'     7.459000   -5.238000  115.756000 OH   91 A      -0.6139 ****
2841 HO2'    6.923000   -4.476000  115.987000 HO   91 A       0.4186 ****
2842 O3'     8.722000   -7.246000  115.211000 OS   91 A      -0.5246 ****
2843 P       7.656000   -5.594000  116.439000 P    92 U       1.1662 ****
2844 OP1     8.619000   -6.685000  116.704000 O2   92 U      -0.7760 ****
2845 OP2     6.382000   -5.616000  117.192000 O2   92 U      -0.7760 ****
2846 O5'     8.474000   -4.238000  116.668000 OS   92 U      -0.4989 ****
2847 C5'     9.422000   -3.817000  115.670000 CI   92 U       0.0558 ****
2848 H5'     8.908000   -3.668000  114.720000 H1   92 U       0.0679 ****
2849 H5''   10.189000   -4.582000  115.550000 H1   92 U       0.0679 ****
2850 C4'    10.078000   -2.513000  116.093000 CT   92 U       0.1065 ****
2851 H4'    11.013000   -2.382000  115.547000 H1   92 U       0.1174 ****
2852 O4'     9.241000   -1.400000  115.655000 OS   92 U      -0.3548 ****
2853 C1'     8.559000   -0.838000  116.767000 CT   92 U       0.0674 ****
2854 H1'     8.838000    0.210000  116.874000 H2   92 U       0.1824 ****
2855 N1      7.061000   -0.766000  116.466000 N*   92 U       0.0418 ****
2856 C6      6.218000   -1.837000  116.608000 CS   92 U      -0.1126 ****
2857 H6      6.605000   -2.787000  116.947000 H4   92 U       0.2188 ****
2858 C5      4.902000   -1.720000  116.386000 CS   92 U      -0.3635 ****
2859 H5      4.250000   -2.585000  116.505000 HA   92 U       0.1811 ****
2860 C4      4.331000   -0.459000  115.990000 C    92 U       0.5952 ****
2861 O4      3.139000   -0.257000  115.765000 O    92 U      -0.5761 ****
2862 N3      5.251000    0.563000  115.871000 NA   92 U      -0.3549 ****
2863 H3      4.866000    1.538000  115.573000 H    92 U       0.3154 ****
2864 C2      6.610000    0.473000  116.093000 C    92 U       0.4687 ****
2865 O2      7.346000    1.437000  115.962000 O    92 U      -0.5477 ****
2866 C3'    10.233000   -2.304000  117.601000 CT   92 U       0.2022 ****
2867 H3'    10.347000   -3.271000  118.092000 H1   92 U       0.0615 ****
2868 C2'     8.890000   -1.686000  117.996000 CT   92 U       0.0670 ****
2869 H2'     8.395000   -2.327000  118.726000 H1   92 U       0.0972 ****
2870 O2'     9.110000   -0.394000  118.569000 OH   92 U      -0.6139 ****
2871 HO2'    8.248000   -0.041000  118.803000 HO   92 U       0.4186 ****
2872 O3'    11.252000   -1.407000  118.016000 OS   92 U      -0.5246 ****
2873 P       9.464000   -0.571000  119.249000 P    93 U       1.1662 ****
2874 OP1    10.865000   -0.969000  119.514000 O2   93 U      -0.7760 ****
2875 OP2     8.405000   -1.278000  120.002000 O2   93 U      -0.7760 ****
2876 O5'     9.421000    1.012000  119.478000 OS   93 U      -0.4989 ****
2877 C5'     9.991000    1.878000  118.480000 CI   93 U       0.0558 ****
2878 H5'     9.478000    1.726000  117.530000 H1   93 U       0.0679 ****
2879 H5''   11.050000    1.649000  118.360000 H1   93 U       0.0679 ****
2880 C4'     9.839000    3.330000  118.903000 CT   93 U       0.1065 ****
2881 H4'    10.555000    3.945000  118.357000 H1   93 U       0.1174 ****
2882 O4'     8.533000    3.815000  118.465000 OS   93 U      -0.3548 ****
2883 C1'     7.655000    3.919000  119.577000 CT   93 U       0.0674 ****
2884 H1'     7.324000    4.952000  119.684000 H2   93 U       0.1824 ****
2885 N1      6.355000    3.170000  119.276000 N*   93 U       0.0418 ****
2886 C6      6.225000    1.813000  119.418000 CS   93 U      -0.1126 ****
2887 H6      7.064000    1.223000  119.757000 H4   93 U       0.2188 ****
2888 C5      5.054000    1.201000  119.196000 CS   93 U      -0.3635 ****
2889 H5      4.973000    0.120000  119.315000 HA   93 U       0.1811 ****
2890 C4      3.893000    1.954000  118.800000 C    93 U       0.5952 ****
2891 O4      2.780000    1.480000  118.575000 O    93 U      -0.5761 ****
2892 N3      4.115000    3.311000  118.681000 NA   93 U      -0.3549 ****
2893 H3      3.264000    3.923000  118.383000 H    93 U       0.3154 ****
2894 C2      5.307000    3.969000  118.903000 C    93 U       0.4687 ****
2895 O2      5.406000    5.178000  118.772000 O    93 U      -0.5477 ****
2896 C3'     9.856000    3.589000  120.411000 CT   93 U       0.2022 ****
2897 H3'    10.474000    2.837000  120.902000 H1   93 U       0.0615 ****
2898 C2'     8.392000    3.384000  120.806000 CT   93 U       0.0670 ****
2899 H2'     8.322000    2.577000  121.536000 H1   93 U       0.0972 ****
2900 O2'     7.879000    4.589000  121.379000 OH   93 U      -0.6139 ****
2901 HO2'    6.963000    4.421000  121.613000 HO   93 U       0.4186 ****
2902 O3'    10.229000    4.895000  120.826000 OS   93 U      -0.5246 ****
2903 P       8.150000    4.470000  121.968000 P    94 C       1.1662 ****
2904 OP1     9.569000    4.842000  122.160000 O2   94 C      -0.7760 ****
2905 OP2     7.629000    3.344000  122.776000 O2   94 C      -0.7760 ****
2906 O5'     7.321000    5.818000  122.199000 OS   94 C      -0.4989 ****
2907 C5'     7.328000    6.827000  121.172000 CI   94 C       0.0558 ****
2908 H5'     6.921000    6.411000  120.251000 H1   94 C       0.0679 ****
2909 H5''    8.351000    7.162000  120.998000 H1   94 C       0.0679 ****
2910 C4'     6.480000    8.013000  121.602000 CT   94 C       0.1065 ****
2911 H4'     6.761000    8.891000  121.020000 H1   94 C       0.1174 ****
2912 O4'     5.091000    7.759000  121.233000 OS   94 C      -0.3548 ****
2913 C1'     4.332000    7.434000  122.389000 CT   94 C       0.0066 ****
2914 H1'     3.529000    8.160000  122.513000 H2   94 C       0.2029 ****
2915 N1      3.614000    6.155000  122.128000 N*   94 C      -0.0484 ****
2916 C6      4.240000    4.956000  122.271000 C4   94 C       0.0053 ****
2917 H6      5.275000    4.921000  122.579000 H4   94 C       0.1958 ****
2918 C5      3.583000    3.790000  122.032000 C4   94 C      -0.5215 ****
2919 H5      4.101000    2.838000  122.152000 HA   94 C       0.1928 ****
2920 C4      2.216000    3.889000  121.626000 CA   94 C       0.8185 ****
2921 N4      1.518000    2.797000  121.378000 N2   94 C      -0.9530 ****
2922 H41     0.555000    2.909000  121.094000 H    94 C       0.4234 ****
2923 H42     1.946000    1.887000  121.472000 H    94 C       0.4234 ****
2924 N3      1.611000    5.066000  121.489000 NC   94 C      -0.7584 ****
2925 C2      2.286000    6.221000  121.733000 C    94 C       0.7538 ****
2926 O2      1.757000    7.337000  121.616000 O    94 C      -0.6252 ****
2927 C3'     6.431000    8.285000  123.107000 CT   94 C       0.2022 ****
2928 H3'     7.366000    7.963000  123.566000 H1   94 C       0.0615 ****
2929 C2'     5.293000    7.379000  123.579000 CT   94 C       0.0670 ****
2930 H2'     5.674000    6.667000  124.311000 H1   94 C       0.0972 ****
2931 O2'     4.266000    8.174000  124.177000 OH   94 C      -0.6139 ****
2932 HO2'    3.573000    7.572000  124.459000 HO   94 C       0.4186 ****
2933 O3'     6.110000    9.611000  123.502000 OS   94 C      -0.5246 ****
2934 P       4.459000    8.368000  124.869000 P    95 U       1.1662 ****
2935 OP1     5.404000    9.475000  125.134000 O2   95 U      -0.7760 ****
2936 OP2     4.661000    7.110000  125.622000 O2   95 U      -0.7760 ****
2937 O5'     3.002000    8.987000  125.098000 OS   95 U      -0.4989 ****
2938 C5'     2.451000    9.866000  124.100000 CI   95 U       0.0558 ****
2939 H5'     2.376000    9.336000  123.150000 H1   95 U       0.0679 ****
2940 H5''    3.101000   10.733000  123.980000 H1   95 U       0.0679 ****
2941 C4'     1.068000   10.332000  124.523000 CT   95 U       0.1065 ****
2942 H4'     0.807000   11.239000  123.977000 H1   95 U       0.1174 ****
2943 O4'     0.084000    9.346000  124.085000 OS   95 U      -0.3548 ****
2944 C1'    -0.376000    8.592000  125.197000 CT   95 U       0.0674 ****
2945 H1'    -1.454000    8.721000  125.304000 H2   95 U       0.1824 ****
2946 N1     -0.236000    7.098000  124.896000 N*   95 U       0.0418 ****
2947 C6      0.943000    6.415000  125.038000 CS   95 U      -0.1126 ****
2948 H6      1.829000    6.932000  125.377000 H4   95 U       0.2188 ****
2949 C5      1.012000    5.095000  124.816000 CS   95 U      -0.3635 ****
2950 H5      1.961000    4.572000  124.935000 HA   95 U       0.1811 ****
2951 C4     -0.156000    4.353000  124.420000 C    95 U       0.5952 ****
2952 O4     -0.188000    3.144000  124.195000 O    95 U      -0.5761 ****
2953 N3     -1.297000    5.119000  124.301000 NA   95 U      -0.3549 ****
2954 H3     -2.208000    4.601000  124.003000 H    95 U       0.3154 ****
2955 C2     -1.399000    6.478000  124.523000 C    95 U       0.4687 ****
2956 O2     -2.457000    7.071000  124.392000 O    95 U      -0.5477 ****
2957 C3'     0.839000   10.455000  126.031000 CT   95 U       0.2022 ****
2958 H3'     1.780000   10.704000  126.522000 H1   95 U       0.0615 ****
2959 C2'     0.417000    9.039000  126.426000 CT   95 U       0.0670 ****
2960 H2'     1.121000    8.639000  127.156000 H1   95 U       0.0972 ****
2961 O2'    -0.893000    9.074000  126.999000 OH   95 U      -0.6139 ****
2962 HO2'   -1.121000    8.172000  127.233000 HO   95 U       0.4186 ****
2963 O3'    -0.192000   11.338000  126.446000 OS   95 U      -0.5246 ****
2964 P      -0.777000    9.470000  127.716000 P    96 A       1.1662 ****
2965 OP1    -0.588000   10.912000  127.991000 O2   96 A      -0.7760 ****
2966 OP2     0.072000    8.519000  128.469000 O2   96 A      -0.7760 ****
2967 O5'    -2.338000    9.196000  127.936000 OS   96 A      -0.4989 ****
2968 C5'    -3.272000    9.640000  126.934000 CI   96 A       0.0558 ****
2969 H5'    -3.041000    9.159000  125.983000 H1   96 A       0.0679 ****
2970 H5''   -3.198000   10.721000  126.821000 H1   96 A       0.0679 ****
2971 C4'    -4.689000    9.276000  127.347000 CT   96 A       0.1065 ****
2972 H4'    -5.398000    9.898000  126.801000 H1   96 A       0.1174 ****
2973 O4'    -4.976000    7.916000  126.900000 OS   96 A      -0.3548 ****
2974 C1'    -4.958000    7.027000  128.007000 CT   96 A       0.0394 ****
2975 H1'    -5.933000    6.548000  128.105000 H2   96 A       0.2007 ****
2976 N9     -4.033000    5.859000  127.707000 N*   96 A      -0.0251 ****
2977 C8     -2.671000    5.741000  127.796000 C5   96 A       0.2006 ****
2978 H8     -2.077000    6.579000  128.130000 H5   96 A       0.1553 ****
2979 N7     -2.225000    4.554000  127.511000 NB   96 A      -0.6073 ****
2980 C5     -3.371000    3.827000  127.209000 CB   96 A       0.0515 ****
2981 C6     -3.571000    2.495000  126.827000 CA   96 A       0.7009 ****
2982 N6     -2.576000    1.612000  126.673000 N2   96 A      -0.9019 ****
2983 H61    -2.781000    0.663000  126.395000 H    96 A       0.4115 ****
2984 H62    -1.620000    1.895000  126.836000 H    96 A       0.4115 ****
2985 N1     -4.833000    2.100000  126.606000 NC   96 A      -0.7615 ****
2986 C2     -5.817000    2.981000  126.760000 CQ   96 A       0.5875 ****
2987 H2     -6.840000    2.683000  126.587000 H5   96 A       0.0473 ****
2988 N3     -5.751000    4.251000  127.114000 NC   96 A      -0.6997 ****
2989 C4     -4.471000    4.623000  127.330000 CB   96 A       0.3053 ****
2990 C3'    -4.956000    9.247000  128.853000 CT   96 A       0.2022 ****
2991 H3'    -4.305000    9.965000  129.352000 H1   96 A       0.0615 ****
2992 C2'    -4.543000    7.826000  129.243000 CT   96 A       0.0670 ****
2993 H2'    -3.739000    7.870000  129.978000 H1   96 A       0.0972 ****
2994 O2'    -5.665000    7.141000  129.806000 OH   96 A      -0.6139 ****
2995 HO2'   -5.367000    6.258000  130.037000 HO   96 A       0.4186 ****
2996 O3'    -6.304000    9.425000  129.261000 OS   96 A      -0.5246 ****
2997 P      -5.752000    7.538000  130.489000 P    97 U       1.1662 ****
2998 OP1    -6.366000    8.858000  130.754000 O2   97 U      -0.7760 ****
2999 OP2    -4.524000    7.197000  131.242000 O2   97 U      -0.7760 ****
3000 O5'    -6.922000    6.470000  130.718000 OS   97 U      -0.4989 ****
3001 C5'    -7.950000    6.336000  129.720000 CI   97 U       0.0558 ****
3002 H5'    -7.499000    6.047000  128.770000 H1   97 U       0.0679 ****
3003 H5''   -8.468000    7.287000  129.600000 H1   97 U       0.0679 ****
3004 C4'    -8.950000    5.272000  130.143000 CT   97 U       0.1065 ****
3005 H4'    -9.883000    5.412000  129.597000 H1   97 U       0.1174 ****
3006 O4'    -8.463000    3.967000  129.705000 OS   97 U      -0.3548 ****
3007 C1'    -7.969000    3.234000  130.817000 CT   97 U       0.0674 ****
3008 H1'    -8.534000    2.309000  130.924000 H2   97 U       0.1824 ****
3009 N1     -6.552000    2.740000  130.516000 N*   97 U       0.0418 ****
3010 C6     -5.440000    3.528000  130.658000 CS   97 U      -0.1126 ****
3011 H6     -5.541000    4.548000  130.997000 H4   97 U       0.2188 ****
3012 C5     -4.212000    3.041000  130.436000 CS   97 U      -0.3635 ****
3013 H5     -3.341000    3.686000  130.555000 HA   97 U       0.1811 ****
3014 C4     -4.022000    1.670000  130.040000 C    97 U       0.5952 ****
3015 O4     -2.937000    1.138000  129.815000 O    97 U      -0.5761 ****
3016 N3     -5.195000    0.952000  129.921000 NA   97 U      -0.3549 ****
3017 H3     -5.102000   -0.093000  129.623000 H    97 U       0.3154 ****
3018 C2     -6.472000    1.424000  130.143000 C    97 U       0.4687 ****
3019 O2     -7.452000    0.709000  130.012000 O    97 U      -0.5477 ****
3020 C3'    -9.157000    5.116000  131.651000 CT   97 U       0.2022 ****
3021 H3'    -8.992000    6.074000  132.142000 H1   97 U       0.0615 ****
3022 C2'    -8.045000    4.142000  132.046000 CT   97 U       0.0670 ****
3023 H2'    -7.389000    4.616000  132.776000 H1   97 U       0.0972 ****
3024 O2'    -8.622000    2.965000  132.619000 OH   97 U      -0.6139 ****
3025 HO2'   -7.897000    2.382000  132.853000 HO   97 U       0.4186 ****
3026 O3'   -10.389000    4.545000  132.066000 OS   97 U      -0.5246 ****
3027 P      -8.709000    3.249000  133.208000 P    98 C       1.1662 ****
3028 OP1    -9.919000    4.080000  133.400000 O2   98 C      -0.7760 ****
3029 OP2    -7.517000    3.590000  134.016000 O2   98 C      -0.7760 ****
3030 O5'    -9.188000    1.740000  133.439000 OS   98 C      -0.4989 ****
3031 C5'    -9.957000    1.086000  132.412000 CI   98 C       0.0558 ****
3032 H5'    -9.375000    1.050000  131.491000 H1   98 C       0.0679 ****
3033 H5''  -10.878000    1.641000  132.238000 H1   98 C       0.0679 ****
3034 C4'   -10.301000   -0.331000  132.842000 CT   98 C       0.1065 ****
3035 H4'   -11.148000   -0.692000  132.260000 H1   98 C       0.1174 ****
3036 O4'    -9.200000   -1.216000  132.473000 OS   98 C      -0.3548 ****
3037 C1'    -8.459000   -1.578000  133.629000 CT   98 C       0.0066 ****
3038 H1'    -8.483000   -2.661000  133.753000 H2   98 C       0.2029 ****
3039 N1     -7.021000   -1.286000  133.368000 N*   98 C      -0.0484 ****
3040 C6     -6.523000   -0.029000  133.511000 C4   98 C       0.0053 ****
3041 H6     -7.172000    0.778000  133.819000 H4   98 C       0.1958 ****
3042 C5     -5.210000    0.236000  133.272000 C4   98 C      -0.5215 ****
3043 H5     -4.828000    1.250000  133.392000 HA   98 C       0.1928 ****
3044 C4     -4.392000   -0.864000  132.866000 CA   98 C       0.8185 ****
3045 N4     -3.109000   -0.679000  132.618000 N2   98 C      -0.9530 ****
3046 H41    -2.565000   -1.481000  132.334000 H    98 C       0.4234 ****
3047 H42    -2.700000    0.240000  132.712000 H    98 C       0.4234 ****
3048 N3     -4.888000   -2.091000  132.729000 NC   98 C      -0.7584 ****
3049 C2     -6.203000   -2.335000  132.973000 C    98 C       0.7538 ****
3050 O2     -6.702000   -3.464000  132.856000 O    98 C      -0.6252 ****
3051 C3'   -10.474000   -0.545000  134.347000 CT   98 C       0.2022 ****
3052 H3'   -10.841000    0.373000  134.806000 H1   98 C       0.0615 ****
3053 C2'    -9.044000   -0.815000  134.819000 CT   98 C       0.0670 ****
3054 H2'    -8.754000   -0.061000  135.551000 H1   98 C       0.0972 ****
3055 O2'    -8.975000   -2.111000  135.417000 OH   98 C      -0.6139 ****
3056 HO2'   -8.067000   -2.243000  135.699000 HO   98 C       0.4186 ****
3057 O3'   -11.268000   -1.655000  134.742000 OS   98 C      -0.5246 ****
3058 P      -9.248000   -2.092000  136.109000 P    99 U       1.1662 ****
3059 OP1   -10.704000   -2.101000  136.374000 O2   99 U      -0.7760 ****
3060 OP2    -8.427000   -1.118000  136.862000 O2   99 U      -0.7760 ****
3061 O5'    -8.764000   -3.600000  136.338000 OS   99 U      -0.4989 ****
3062 C5'    -9.070000   -4.591000  135.340000 CI   99 U       0.0558 ****
3063 H5'    -8.620000   -4.302000  134.390000 H1   99 U       0.0679 ****
3064 H5''  -10.151000   -4.666000  135.220000 H1   99 U       0.0679 ****
3065 C4'    -8.519000   -5.943000  135.763000 CT   99 U       0.1065 ****
3066 H4'    -9.035000   -6.733000  135.217000 H1   99 U       0.1174 ****
3067 O4'    -7.130000   -6.044000  135.325000 OS   99 U      -0.3548 ****
3068 C1'    -6.258000   -5.899000  136.437000 CT   99 U       0.0674 ****
3069 H1'    -5.652000   -6.799000  136.544000 H2   99 U       0.1824 ****
3070 N1     -5.219000   -4.817000  136.136000 N*   99 U       0.0418 ****
3071 C6     -5.472000   -3.478000  136.278000 CS   99 U      -0.1126 ****
3072 H6     -6.442000   -3.145000  136.617000 H4   99 U       0.2188 ****
3073 C5     -4.518000   -2.563000  136.056000 CS   99 U      -0.3635 ****
3074 H5     -4.742000   -1.503000  136.175000 HA   99 U       0.1811 ****
3075 C4     -3.193000   -2.962000  135.660000 C    99 U       0.5952 ****
3076 O4     -2.257000   -2.197000  135.435000 O    99 U      -0.5761 ****
3077 N3     -3.028000   -4.327000  135.541000 NA   99 U      -0.3549 ****
3078 H3     -2.040000   -4.678000  135.243000 H    99 U       0.3154 ****
3079 C2     -3.989000   -5.292000  135.763000 C    99 U       0.4687 ****
3080 O2     -3.747000   -6.480000  135.632000 O    99 U      -0.5477 ****
3081 C3'    -8.463000   -6.196000  137.271000 CT   99 U       0.2022 ****
3082 H3'    -9.266000   -5.647000  137.762000 H1   99 U       0.0615 ****
3083 C2'    -7.115000   -5.591000  137.666000 CT   99 U       0.0670 ****
3084 H2'    -7.273000   -4.796000  138.396000 H1   99 U       0.0972 ****
3085 O2'    -6.286000   -6.605000  138.239000 OH   99 U      -0.6139 ****
3086 HO2'   -5.453000   -6.188000  138.473000 HO   99 U       0.4186 ****
3087 O3'    -8.458000   -7.554000  137.686000 OS   99 U      -0.5246 ****
3088 P      -6.652000   -6.757000  138.919000 P    100 U3      1.1662 ****
3089 OP1    -7.873000   -7.550000  139.184000 O2   100 U3     -0.7760 ****
3090 OP2    -6.488000   -5.493000  139.672000 O2   100 U3     -0.7760 ****
3091 O5'    -5.431000   -7.764000  139.148000 OS   100 U3     -0.4989 ****
3092 C5'    -5.152000   -8.763000  138.150000 CI   100 U3      0.0558 ****
3093 H5'    -4.930000   -8.277000  137.200000 H1   100 U3      0.0679 ****
3094 H5''   -6.021000   -9.411000  138.030000 H1   100 U3      0.0679 ****
3095 C4'    -3.958000   -9.603000  138.573000 CT   100 U3      0.1065 ****
3096 H4'    -3.966000  -10.547000  138.027000 H1   100 U3      0.1174 ****
3097 O4'    -2.735000   -8.938000  138.135000 OS   100 U3     -0.3548 ****
3098 C1'    -2.079000   -8.345000  139.247000 CT   100 U3      0.0674 ****
3099 H1'    -1.083000   -8.774000  139.354000 H2   100 U3      0.1824 ****
3100 N1     -1.789000   -6.873000  138.946000 N*   100 U3      0.0418 ****
3101 C6     -2.726000   -5.883000  139.088000 CS   100 U3     -0.1126 ****
3102 H6     -3.722000   -6.127000  139.427000 H4   100 U3      0.2188 ****
3103 C5     -2.418000   -4.598000  138.866000 CS   100 U3     -0.3635 ****
3104 H5     -3.178000   -3.827000  138.985000 HA   100 U3      0.1811 ****
3105 C4     -1.087000   -4.218000  138.470000 C    100 U3      0.5952 ****
3106 O4     -0.712000   -3.068000  138.245000 O    100 U3     -0.5761 ****
3107 N3     -0.210000   -5.277000  138.351000 NA   100 U3     -0.3549 ****
3108 H3      0.811000   -5.039000  138.053000 H    100 U3      0.3154 ****
3109 C2     -0.498000   -6.608000  138.573000 C    100 U3      0.4687 ****
3110 O2      0.348000   -7.478000  138.442000 O    100 U3     -0.5477 ****
3111 C3'    -3.774000   -9.786000  140.081000 CT   100 U3      0.2022 ****
3112 H3'    -4.747000   -9.758000  140.572000 H1   100 U3      0.0615 ****
3113 C2'    -2.967000   -8.548000  140.476000 CT   100 U3      0.0670 ****
3114 H2'    -3.529000   -7.965000  141.206000 H1   100 U3      0.0972 ****
3115 O2'    -1.721000   -8.954000  141.049000 OH   100 U3     -0.6139 ****
3116 HO2'   -1.246000   -8.154000  141.283000 HO   100 U3      0.4186 ****
3117 O3'    -3.036000  -10.926000  140.496000 OH   100 U3     -0.6541 ****
3118 HO3'   -2.934000  -11.019000  141.446000 HO   100 U3      0.4376 ****
3119 HO5'   -8.788000    3.060000  150.505000 HO   101 G5      0.4295 ****
3120 O5'    -8.489000    3.962000  150.369000 OH   101 G5     -0.6223 ****
3121 C5'    -8.722000    4.938000  151.403000 CI   101 G5      0.0558 ****
3122 H5'    -8.226000    4.621000  152.321000 H1   101 G5      0.0679 ****
3123 H5''   -9.793000    5.030000  151.582000 H1   101 G5      0.0679 ****
3124 C4'    -8.168000    6.288000  150.977000 CT   101 G5      0.1065 ****
3125 H4'    -8.639000    7.076000  151.565000 H1   101 G5      0.1174 ****
3126 O4'    -6.756000    6.355000  151.340000 OS   101 G5     -0.3548 ****
3127 C1'    -5.948000    6.218000  150.181000 CT   101 G5      0.0191 ****
3128 H1'    -5.331000    7.108000  150.059000 H2   101 G5      0.2006 ****
3129 N9     -4.957000    5.134000  150.434000 N*   101 G5      0.0492 ****
3130 C8     -5.115000    3.767000  150.336000 CP   101 G5      0.1374 ****
3131 H8     -6.068000    3.353000  150.039000 H5   101 G5      0.1640 ****
3132 N7     -4.038000    3.083000  150.632000 NB   101 G5     -0.5709 ****
3133 C5     -3.099000    4.059000  150.947000 CB   101 G5      0.1744 ****
3134 C6     -1.742000    3.935000  151.346000 C    101 G5      0.4770 ****
3135 O6     -1.076000    2.914000  151.507000 O    101 G5     -0.5597 ****
3136 N1     -1.159000    5.189000  151.566000 NA   101 G5     -0.4787 ****
3137 H1     -0.201000    5.206000  151.853000 H    101 G5      0.3424 ****
3138 C2     -1.800000    6.402000  151.418000 CA   101 G5      0.7657 ****
3139 N2     -1.063000    7.491000  151.678000 N2   101 G5     -0.9672 ****
3140 H21    -0.100000    7.516000  151.979000 H    101 G5      0.4364 ****
3141 H22    -1.527000    8.383000  151.580000 H    101 G5      0.4364 ****
3142 N3     -3.070000    6.516000  151.042000 NC   101 G5     -0.6323 ****
3143 C4     -3.652000    5.306000  150.824000 CB   101 G5      0.1222 ****
3144 C3'    -8.189000    6.571000  149.474000 CT   101 G5      0.2022 ****
3145 H3'    -9.027000    6.047000  149.016000 H1   101 G5      0.0615 ****
3146 C2'    -6.876000    5.950000  148.994000 CT   101 G5      0.0670 ****
3147 H2'    -7.087000    5.174000  148.258000 H1   101 G5      0.0972 ****
3148 O2'    -6.059000    6.962000  148.397000 OH   101 G5     -0.6139 ****
3149 HO2'   -5.249000    6.535000  148.110000 HO   101 G5      0.4186 ****
3150 O3'    -8.180000    7.937000  149.086000 OS   101 G5     -0.5246 ****
3151 P      -6.235000    6.925000  147.785000 P    102 G       1.1662 ****
3152 OP1    -7.449000    7.751000  147.599000 O2   102 G      -0.7760 ****
3153 OP2    -6.121000    5.695000  146.969000 O2   102 G      -0.7760 ****
3154 O5'    -5.003000    7.920000  147.559000 OS   102 G      -0.4989 ****
3155 C5'    -4.672000    8.867000  148.593000 CI   102 G       0.0558 ****
3156 H5'    -4.426000    8.332000  149.511000 H1   102 G       0.0679 ****
3157 H5''   -5.524000    9.523000  148.772000 H1   102 G       0.0679 ****
3158 C4'    -3.477000    9.704000  148.167000 CT   102 G       0.1065 ****
3159 H4'    -3.447000   10.621000  148.755000 H1   102 G       0.1174 ****
3160 O4'    -2.252000    8.997000  148.530000 OS   102 G      -0.3548 ****
3161 C1'    -1.646000    8.446000  147.371000 CT   102 G       0.0191 ****
3162 H1'    -0.646000    8.862000  147.249000 H2   102 G       0.2006 ****
3163 N9     -1.398000    6.998000  147.624000 N*   102 G       0.0492 ****
3164 C8     -2.270000    5.933000  147.526000 CP   102 G       0.1374 ****
3165 H8     -3.295000    6.100000  147.229000 H5   102 G       0.1640 ****
3166 N7     -1.732000    4.776000  147.822000 NB   102 G      -0.5709 ****
3167 C5     -0.415000    5.090000  148.137000 CB   102 G       0.1744 ****
3168 C6      0.660000    4.253000  148.536000 C    102 G       0.4770 ****
3169 O6      0.669000    3.033000  148.697000 O    102 G      -0.5597 ****
3170 N1      1.828000    4.993000  148.756000 NA   102 G      -0.4787 ****
3171 H1      2.643000    4.490000  149.043000 H    102 G       0.3424 ****
3172 C2      1.944000    6.360000  148.608000 CA   102 G       0.7657 ****
3173 N2      3.152000    6.878000  148.868000 N2   102 G      -0.9672 ****
3174 H21     3.976000    6.378000  149.169000 H    102 G       0.4364 ****
3175 H22     3.244000    7.880000  148.770000 H    102 G       0.4364 ****
3176 N3      0.937000    7.142000  148.232000 NC   102 G      -0.6323 ****
3177 C4     -0.207000    6.438000  148.014000 CB   102 G       0.1222 ****
3178 C3'    -3.341000    9.954000  146.664000 CT   102 G       0.2022 ****
3179 H3'    -4.330000    9.966000  146.206000 H1   102 G       0.0615 ****
3180 C2'    -2.571000    8.722000  146.184000 CT   102 G       0.0670 ****
3181 H2'    -3.169000    8.183000  145.448000 H1   102 G       0.0972 ****
3182 O2'    -1.338000    9.132000  145.587000 OH   102 G      -0.6139 ****
3183 HO2'   -0.886000    8.335000  145.300000 HO   102 G       0.4186 ****
3184 O3'    -2.595000   11.099000  146.276000 OS   102 G      -0.5246 ****
3185 P      -1.452000    9.398000  144.872000 P    103 A       1.1662 ****
3186 OP1    -1.971000   10.756000  144.596000 O2   103 A      -0.7760 ****
3187 OP2    -2.061000    8.275000  144.125000 O2   103 A      -0.7760 ****
3188 O5'     0.129000    9.493000  144.645000 OS   103 A      -0.4989 ****
3189 C5'     0.940000   10.144000  145.641000 CI   103 A       0.0558 ****
3190 H5'     0.832000    9.626000  146.594000 H1   103 A       0.0679 ****
3191 H5''    0.618000   11.179000  145.752000 H1   103 A       0.0679 ****
3192 C4'     2.400000   10.118000  145.221000 CT   103 A       0.1065 ****
3193 H4'     2.949000   10.889000  145.762000 H1   103 A       0.1174 ****
3194 O4'     2.998000    8.863000  145.668000 OS   103 A      -0.3548 ****
3195 C1'     3.181000    7.990000  144.563000 CT   103 A       0.0394 ****
3196 H1'     4.239000    7.750000  144.460000 H2   103 A       0.2007 ****
3197 N9      2.553000    6.640000  144.870000 N*   103 A      -0.0251 ****
3198 C8      1.255000    6.209000  144.788000 C5   103 A       0.2006 ****
3199 H8      0.481000    6.886000  144.456000 H5   103 A       0.1553 ****
3200 N7      1.098000    4.952000  145.078000 NB   103 A      -0.6073 ****
3201 C5      2.382000    4.512000  145.374000 CB   103 A       0.0515 ****
3202 C6      2.888000    3.264000  145.758000 CA   103 A       0.7009 ****
3203 N6      2.125000    2.174000  145.919000 N2   103 A      -0.9019 ****
3204 H61     2.546000    1.300000  146.197000 H    103 A       0.4115 ****
3205 H62     1.129000    2.228000  145.760000 H    103 A       0.4115 ****
3206 N1      4.208000    3.172000  145.973000 NC   103 A      -0.7615 ****
3207 C2      4.960000    4.257000  145.813000 CQ   103 A       0.5875 ****
3208 H2      6.025000    4.205000  145.981000 H5   103 A       0.0473 ****
3209 N3      4.600000    5.476000  145.457000 NC   103 A      -0.6997 ****
3210 C4      3.268000    5.541000  145.247000 CB   103 A       0.3053 ****
3211 C3'     2.660000   10.147000  143.713000 CT   103 A       0.2022 ****
3212 H3'     1.858000   10.693000  143.216000 H1   103 A       0.0615 ****
3213 C2'     2.586000    8.668000  143.328000 CT   103 A       0.0670 ****
3214 H2'     1.790000    8.522000  142.598000 H1   103 A       0.0972 ****
3215 O2'     3.833000    8.259000  142.760000 OH   103 A      -0.6139 ****
3216 HO2'    3.747000    7.331000  142.532000 HO   103 A       0.4186 ****
3217 O3'     3.928000   10.632000  143.297000 OS   103 A      -0.5246 ****
3218 P       3.682000    8.534000  142.170000 P    104 C       1.1662 ****
3219 OP1     3.919000    9.982000  141.978000 O2   104 C      -0.7760 ****
3220 OP2     2.611000    7.910000  141.362000 O2   104 C      -0.7760 ****
3221 O5'     5.103000    7.836000  141.940000 OS   104 C      -0.4989 ****
3222 C5'     6.106000    7.938000  142.968000 CI   104 C       0.0558 ****
3223 H5'     5.730000    7.493000  143.889000 H1   104 C       0.0679 ****
3224 H5''    6.343000    8.987000  143.142000 H1   104 C       0.0679 ****
3225 C4'     7.367000    7.206000  142.538000 CT   104 C       0.1065 ****
3226 H4'     8.214000    7.568000  143.121000 H1   104 C       0.1174 ****
3227 O4'     7.245000    5.798000  142.907000 OS   104 C      -0.3548 ****
3228 C1'     6.994000    5.013000  141.751000 CT   104 C       0.0066 ****
3229 H1'     7.792000    4.281000  141.628000 H2   104 C       0.2029 ****
3230 N1      5.788000    4.177000  142.012000 N*   104 C      -0.0484 ****
3231 C6      4.535000    4.688000  141.868000 C4   104 C       0.0053 ****
3232 H6      4.402000    5.714000  141.559000 H4   104 C       0.1958 ****
3233 C5      3.436000    3.923000  142.106000 C4   104 C      -0.5215 ****
3234 H5      2.440000    4.349000  141.986000 HA   104 C       0.1928 ****
3235 C4      3.664000    2.571000  142.512000 CA   104 C       0.8185 ****
3236 N4      2.642000    1.774000  142.760000 N2   104 C      -0.9530 ****
3237 H41     2.844000    0.826000  143.044000 H    104 C       0.4234 ****
3238 H42     1.695000    2.114000  142.665000 H    104 C       0.4234 ****
3239 N3      4.892000    2.080000  142.650000 NC   104 C      -0.7584 ****
3240 C2      5.979000    2.861000  142.407000 C    104 C       0.7538 ****
3241 O2      7.139000    2.440000  142.525000 O    104 C      -0.6252 ****
3242 C3'     7.643000    7.183000  141.033000 CT   104 C       0.2022 ****
3243 H3'     7.235000    8.083000  140.575000 H1   104 C       0.0615 ****
3244 C2'     6.848000    5.964000  140.561000 CT   104 C       0.0670 ****
3245 H2'     6.104000    6.276000  139.829000 H1   104 C       0.0972 ****
3246 O2'     7.737000    5.016000  139.963000 OH   104 C      -0.6139 ****
3247 HO2'    7.203000    4.270000  139.681000 HO   104 C       0.4186 ****
3248 O3'     8.994000    6.988000  140.639000 OS   104 C      -0.5246 ****
3249 P       7.709000    5.192000  139.360000 P    105 C       1.1662 ****
3250 OP1     8.691000    6.283000  139.168000 O2   105 C      -0.7760 ****
3251 OP2     6.470000    5.245000  138.552000 O2   105 C      -0.7760 ****
3252 O5'     8.527000    3.837000  139.130000 OS   105 C      -0.4989 ****
3253 C5'     9.427000    3.381000  140.158000 CI   105 C       0.0558 ****
3254 H5'     8.870000    3.210000  141.079000 H1   105 C       0.0679 ****
3255 H5''   10.193000    4.136000  140.332000 H1   105 C       0.0679 ****
3256 C4'    10.092000    2.084000  139.728000 CT   105 C       0.1065 ****
3257 H4'    11.001000    1.931000  140.311000 H1   105 C       0.1174 ****
3258 O4'     9.229000    0.966000  140.097000 OS   105 C      -0.3548 ****
3259 C1'     8.593000    0.440000  138.941000 CT   105 C       0.0066 ****
3260 H1'     8.870000   -0.607000  138.818000 H2   105 C       0.2029 ****
3261 N1      7.127000    0.389000  139.202000 N*   105 C      -0.0484 ****
3262 C6      6.349000    1.495000  139.058000 C4   105 C       0.0053 ****
3263 H6      6.792000    2.430000  138.749000 H4   105 C       0.1958 ****
3264 C5      5.011000    1.445000  139.296000 C4   105 C      -0.5215 ****
3265 H5      4.403000    2.342000  139.176000 HA   105 C       0.1928 ****
3266 C4      4.472000    0.185000  139.702000 CA   105 C       0.8185 ****
3267 N4      3.181000    0.065000  139.950000 N2   105 C      -0.9530 ****
3268 H41     2.839000   -0.842000  140.234000 H    105 C       0.4234 ****
3269 H42     2.569000    0.863000  139.855000 H    105 C       0.4234 ****
3270 N3      5.241000   -0.892000  139.840000 NC   105 C      -0.7584 ****
3271 C2      6.577000   -0.822000  139.597000 C    105 C       0.7538 ****
3272 O2      7.326000   -1.803000  139.715000 O    105 C      -0.6252 ****
3273 C3'    10.312000    1.915000  138.223000 CT   105 C       0.2022 ****
3274 H3'    10.455000    2.893000  137.765000 H1   105 C       0.0615 ****
3275 C2'     8.985000    1.319000  137.751000 CT   105 C       0.0670 ****
3276 H2'     8.527000    1.984000  137.019000 H1   105 C       0.0972 ****
3277 O2'     9.221000    0.042000  137.153000 OH   105 C      -0.6139 ****
3278 HO2'    8.368000   -0.298000  136.871000 HO   105 C       0.4186 ****
3279 O3'    11.344000    1.022000  137.829000 OS   105 C      -0.5246 ****
3280 P       9.509000    0.113000  136.442000 P    106 A       1.1662 ****
3281 OP1    10.927000    0.436000  136.166000 O2   106 A      -0.7760 ****
3282 OP2     8.483000    0.874000  135.695000 O2   106 A      -0.7760 ****
3283 O5'     9.380000   -1.465000  136.215000 OS   106 A      -0.4989 ****
3284 C5'     9.910000   -2.360000  137.211000 CI   106 A       0.0558 ****
3285 H5'     9.413000   -2.180000  138.164000 H1   106 A       0.0679 ****
3286 H5''   10.981000   -2.187000  137.322000 H1   106 A       0.0679 ****
3287 C4'     9.679000   -3.802000  136.791000 CT   106 A       0.1065 ****
3288 H4'    10.365000   -4.453000  137.332000 H1   106 A       0.1174 ****
3289 O4'     8.352000   -4.216000  137.238000 OS   106 A      -0.3548 ****
3290 C1'     7.462000   -4.275000  136.133000 CT   106 A       0.0394 ****
3291 H1'     7.076000   -5.289000  136.030000 H2   106 A       0.2007 ****
3292 N9      6.214000   -3.463000  136.440000 N*   106 A      -0.0251 ****
3293 C8      5.971000   -2.117000  136.358000 C5   106 A       0.2006 ****
3294 H8      6.749000   -1.447000  136.026000 H5   106 A       0.1553 ****
3295 N7      4.748000   -1.784000  136.648000 NB   106 A      -0.6073 ****
3296 C5      4.131000   -2.994000  136.944000 CB   106 A       0.0515 ****
3297 C6      2.825000   -3.319000  137.328000 CA   106 A       0.7009 ****
3298 N6      1.853000   -2.410000  137.489000 N2   106 A      -0.9019 ****
3299 H61     0.928000   -2.704000  137.767000 H    106 A       0.4115 ****
3300 H62     2.046000   -1.431000  137.330000 H    106 A       0.4115 ****
3301 N1      2.548000   -4.613000  137.543000 NC   106 A      -0.7615 ****
3302 C2      3.516000   -5.510000  137.383000 CQ   106 A       0.5875 ****
3303 H2      3.314000   -6.558000  137.551000 H5   106 A       0.0473 ****
3304 N3      4.774000   -5.325000  137.027000 NC   106 A      -0.6997 ****
3305 C4      5.025000   -4.016000  136.817000 CB   106 A       0.3053 ****
3306 C3'     9.671000   -4.063000  135.283000 CT   106 A       0.2022 ****
3307 H3'    10.324000   -3.346000  134.786000 H1   106 A       0.0615 ****
3308 C2'     8.217000   -3.781000  134.898000 CT   106 A       0.0670 ****
3309 H2'     8.185000   -2.973000  134.168000 H1   106 A       0.0972 ****
3310 O2'     7.637000   -4.959000  134.330000 OH   106 A      -0.6139 ****
3311 HO2'    6.730000   -4.742000  134.102000 HO   106 A       0.4186 ****
3312 O3'     9.972000   -5.387000  134.867000 OS   106 A      -0.5246 ****
3313 P       8.063000   -5.042000  133.632000 P    107 A       1.1662 ****
3314 OP1     9.430000   -5.536000  133.356000 O2   107 A      -0.7760 ****
3315 OP2     7.610000   -3.847000  132.885000 O2   107 A      -0.7760 ****
3316 O5'     7.101000   -6.300000  133.405000 OS   107 A      -0.4989 ****
3317 C5'     7.065000   -7.340000  134.401000 CI   107 A       0.0558 ****
3318 H5'     6.743000   -6.919000  135.354000 H1   107 A       0.0679 ****
3319 H5''    8.059000   -7.772000  134.512000 H1   107 A       0.0679 ****
3320 C4'     6.091000   -8.428000  133.981000 CT   107 A       0.1065 ****
3321 H4'     6.316000   -9.347000  134.522000 H1   107 A       0.1174 ****
3322 O4'     4.750000   -8.060000  134.428000 OS   107 A      -0.3548 ****
3323 C1'     3.970000   -7.629000  133.323000 CT   107 A       0.0394 ****
3324 H1'     3.097000   -8.274000  133.220000 H2   107 A       0.2007 ****
3325 N9      3.358000   -6.271000  133.630000 N*   107 A      -0.0251 ****
3326 C8      3.880000   -5.007000  133.548000 C5   107 A       0.2006 ****
3327 H8      4.898000   -4.864000  133.216000 H5   107 A       0.1553 ****
3328 N7      3.031000   -4.067000  133.838000 NB   107 A      -0.6073 ****
3329 C5      1.859000   -4.752000  134.134000 CB   107 A       0.0515 ****
3330 C6      0.584000   -4.319000  134.518000 CA   107 A       0.7009 ****
3331 N6      0.257000   -3.029000  134.679000 N2   107 A      -0.9019 ****
3332 H61    -0.680000   -2.776000  134.957000 H    107 A       0.4115 ****
3333 H62     0.949000   -2.310000  134.520000 H    107 A       0.4115 ****
3334 N1     -0.348000   -5.258000  134.733000 NC   107 A      -0.7615 ****
3335 C2     -0.018000   -6.536000  134.573000 CQ   107 A       0.5875 ****
3336 H2     -0.754000   -7.309000  134.741000 H5   107 A       0.0473 ****
3337 N3      1.140000   -7.060000  134.217000 NC   107 A      -0.6997 ****
3338 C4      2.059000   -6.094000  134.007000 CB   107 A       0.3053 ****
3339 C3'     5.943000   -8.644000  132.473000 CT   107 A       0.2022 ****
3340 H3'     6.880000   -8.393000  131.976000 H1   107 A       0.0615 ****
3341 C2'     4.872000   -7.621000  132.088000 CT   107 A       0.0670 ****
3342 H2'     5.282000   -6.923000  131.358000 H1   107 A       0.0972 ****
3343 O2'     3.748000   -8.298000  131.520000 OH   107 A      -0.6139 ****
3344 HO2'    3.101000   -7.627000  131.292000 HO   107 A       0.4186 ****
3345 O3'     5.481000   -9.921000  132.057000 OS   107 A      -0.5246 ****
3346 P       4.056000   -8.389000  130.925000 P    108 G       1.1662 ****
3347 OP1     4.990000   -9.522000  130.739000 O2   108 G      -0.7760 ****
3348 OP2     4.289000   -7.177000  130.109000 O2   108 G      -0.7760 ****
3349 O5'     2.595000   -9.002000  130.699000 OS   108 G      -0.4989 ****
3350 C5'     2.013000   -9.818000  131.733000 CI   108 G       0.0558 ****
3351 H5'     1.926000   -9.237000  132.651000 H1   108 G       0.0679 ****
3352 H5''    2.648000  -10.686000  131.912000 H1   108 G       0.0679 ****
3353 C4'     0.631000  -10.289000  131.307000 CT   108 G       0.1065 ****
3354 H4'     0.347000  -11.162000  131.895000 H1   108 G       0.1174 ****
3355 O4'    -0.348000   -9.268000  131.670000 OS   108 G      -0.3548 ****
3356 C1'    -0.775000   -8.570000  130.511000 CT   108 G       0.0191 ****
3357 H1'    -1.852000   -8.690000  130.389000 H2   108 G       0.2006 ****
3358 N9     -0.610000   -7.110000  130.764000 N*   108 G       0.0492 ****
3359 C8      0.524000   -6.331000  130.666000 CP   108 G       0.1374 ****
3360 H8      1.462000   -6.777000  130.369000 H5   108 G       0.1640 ****
3361 N7      0.331000   -5.070000  130.962000 NB   108 G      -0.5709 ****
3362 C5     -1.021000   -5.004000  131.277000 CB   108 G       0.1744 ****
3363 C6     -1.820000   -3.900000  131.676000 C    108 G       0.4770 ****
3364 O6     -1.489000   -2.726000  131.837000 O    108 G      -0.5597 ****
3365 N1     -3.148000   -4.284000  131.896000 NA   108 G      -0.4787 ****
3366 H1     -3.791000   -3.574000  132.183000 H    108 G       0.3424 ****
3367 C2     -3.641000   -5.565000  131.748000 CA   108 G       0.7657 ****
3368 N2     -4.946000   -5.726000  132.008000 N2   108 G      -0.9672 ****
3369 H21    -5.598000   -5.016000  132.309000 H    108 G       0.4364 ****
3370 H22    -5.313000   -6.662000  131.910000 H    108 G       0.4364 ****
3371 N3     -2.892000   -6.597000  131.372000 NC   108 G      -0.6323 ****
3372 C4     -1.598000   -6.240000  131.154000 CB   108 G       0.1222 ****
3373 C3'     0.431000  -10.491000  129.804000 CT   108 G       0.2022 ****
3374 H3'     1.378000  -10.778000  129.346000 H1   108 G       0.0615 ****
3375 C2'     0.036000   -9.093000  129.324000 CT   108 G       0.0670 ****
3376 H2'     0.760000   -8.742000  128.588000 H1   108 G       0.0972 ****
3377 O2'    -1.263000   -9.143000  128.727000 OH   108 G      -0.6139 ****
3378 HO2'   -1.474000   -8.251000  128.440000 HO   108 G       0.4186 ****
3379 O3'    -0.604000  -11.382000  129.416000 OS   108 G      -0.5246 ****
3380 P      -1.228000   -9.430000  128.012000 P    109 A       1.1662 ****
3381 OP1    -1.108000  -10.879000  127.736000 O2   109 A      -0.7760 ****
3382 OP2    -0.330000   -8.521000  127.265000 O2   109 A      -0.7760 ****
3383 O5'    -2.772000   -9.080000  127.785000 OS   109 A      -0.4989 ****
3384 C5'    -3.733000   -9.479000  128.781000 CI   109 A       0.0558 ****
3385 H5'    -3.484000   -9.012000  129.734000 H1   109 A       0.0679 ****
3386 H5''   -3.712000  -10.563000  128.892000 H1   109 A       0.0679 ****
3387 C4'    -5.128000   -9.046000  128.361000 CT   109 A       0.1065 ****
3388 H4'    -5.869000   -9.634000  128.902000 H1   109 A       0.1174 ****
3389 O4'    -5.351000   -7.674000  128.808000 OS   109 A      -0.3548 ****
3390 C1'    -5.284000   -6.785000  127.703000 CT   109 A       0.0394 ****
3391 H1'    -6.233000   -6.260000  127.600000 H2   109 A       0.2007 ****
3392 N9     -4.304000   -5.664000  128.010000 N*   109 A      -0.0251 ****
3393 C8     -2.938000   -5.613000  127.928000 C5   109 A       0.2006 ****
3394 H8     -2.383000   -6.478000  127.596000 H5   109 A       0.1553 ****
3395 N7     -2.436000   -4.449000  128.218000 NB   109 A      -0.6073 ****
3396 C5     -3.546000   -3.668000  128.514000 CB   109 A       0.0515 ****
3397 C6     -3.684000   -2.329000  128.898000 CA   109 A       0.7009 ****
3398 N6     -2.647000   -1.495000  129.059000 N2   109 A      -0.9019 ****
3399 H61    -2.807000   -0.538000  129.337000 H    109 A       0.4115 ****
3400 H62    -1.705000   -1.824000  128.900000 H    109 A       0.4115 ****
3401 N1     -4.925000   -1.873000  129.113000 NC   109 A      -0.7615 ****
3402 C2     -5.951000   -2.705000  128.953000 CQ   109 A       0.5875 ****
3403 H2     -6.959000   -2.357000  129.121000 H5   109 A       0.0473 ****
3404 N3     -5.945000   -3.976000  128.597000 NC   109 A      -0.6997 ****
3405 C4     -4.684000   -4.409000  128.387000 CB   109 A       0.3053 ****
3406 C3'    -5.385000   -9.002000  126.853000 CT   109 A       0.2022 ****
3407 H3'    -4.767000   -9.750000  126.356000 H1   109 A       0.0615 ****
3408 C2'    -4.901000   -7.603000  126.468000 CT   109 A       0.0670 ****
3409 H2'    -4.096000   -7.684000  125.738000 H1   109 A       0.0972 ****
3410 O2'    -5.985000   -6.862000  125.900000 OH   109 A      -0.6139 ****
3411 HO2'   -5.643000   -5.994000  125.672000 HO   109 A       0.4186 ****
3412 O3'    -6.738000   -9.113000  126.437000 OS   109 A      -0.5246 ****
3413 P      -6.110000   -7.261000  125.240000 P    110 U       1.1662 ****
3414 OP1    -6.786000   -8.550000  124.973000 O2   110 U      -0.7760 ****
3415 OP2    -4.863000   -6.982000  124.492000 O2   110 U      -0.7760 ****
3416 O5'    -7.225000   -6.138000  125.002000 OS   110 U      -0.4989 ****
3417 C5'    -8.251000   -5.952000  125.995000 CI   110 U       0.0558 ****
3418 H5'    -7.792000   -5.684000  126.946000 H1   110 U       0.0679 ****
3419 H5''   -8.815000   -6.877000  126.113000 H1   110 U       0.0679 ****
3420 C4'    -9.195000   -4.841000  125.565000 CT   110 U       0.1065 ****
3421 H4'   -10.137000   -4.935000  126.105000 H1   110 U       0.1174 ****
3422 O4'    -8.648000   -3.561000  126.003000 OS   110 U      -0.3548 ****
3423 C1'    -8.112000   -2.855000  124.893000 CT   110 U       0.0674 ****
3424 H1'    -8.631000   -1.903000  124.782000 H2   110 U       0.1824 ****
3425 N1     -6.675000   -2.430000  125.200000 N*   110 U       0.0418 ****
3426 C6     -5.602000   -3.271000  125.066000 CS   110 U      -0.1126 ****
3427 H6     -5.751000   -4.287000  124.728000 H4   110 U       0.2188 ****
3428 C5     -4.352000   -2.845000  125.294000 CS   110 U      -0.3635 ****
3429 H5     -3.513000   -3.532000  125.180000 HA   110 U       0.1811 ****
3430 C4     -4.099000   -1.484000  125.689000 C    110 U       0.5952 ****
3431 O4     -2.989000   -1.005000  125.920000 O    110 U      -0.5761 ****
3432 N3     -5.235000   -0.709000  125.800000 NA   110 U      -0.3549 ****
3433 H3     -5.093000    0.330000  126.098000 H    110 U       0.3154 ****
3434 C2     -6.533000   -1.119000  125.572000 C    110 U       0.4687 ****
3435 O2     -7.477000   -0.357000  125.697000 O    110 U      -0.5477 ****
3436 C3'    -9.386000   -4.678000  124.056000 CT   110 U       0.2022 ****
3437 H3'    -9.265000   -5.644000  123.567000 H1   110 U       0.0615 ****
3438 C2'    -8.226000   -3.760000  123.665000 CT   110 U       0.0670 ****
3439 H2'    -7.590000   -4.267000  122.939000 H1   110 U       0.0972 ****
3440 O2'    -8.742000   -2.558000  123.087000 OH   110 U      -0.6139 ****
3441 HO2'   -7.988000   -2.011000  122.856000 HO   110 U       0.4186 ****
3442 O3'   -10.587000   -4.049000  123.633000 OS   110 U      -0.5246 ****
3443 P      -9.085000   -2.809000  122.392000 P    111 A       1.1662 ****
3444 OP1   -10.353000   -3.521000  122.116000 O2   111 A      -0.7760 ****
3445 OP2    -7.885000   -3.247000  121.645000 O2   111 A      -0.7760 ****
3446 O5'    -9.410000   -1.259000  122.165000 OS   111 A      -0.4989 ****
3447 C5'   -10.173000   -0.552000  123.161000 CI   111 A       0.0558 ****
3448 H5'    -9.644000   -0.584000  124.114000 H1   111 A       0.0679 ****
3449 H5''  -11.150000   -1.022000  123.272000 H1   111 A       0.0679 ****
3450 C4'   -10.360000    0.897000  122.741000 CT   111 A       0.1065 ****
3451 H4'   -11.203000    1.326000  123.282000 H1   111 A       0.1174 ****
3452 O4'    -9.206000    1.671000  123.188000 OS   111 A      -0.3548 ****
3453 C1'    -8.369000    1.980000  122.083000 CT   111 A       0.0394 ****
3454 H1'    -8.287000    3.062000  121.980000 H2   111 A       0.2007 ****
3455 N9     -6.942000    1.556000  122.390000 N*   111 A      -0.0251 ****
3456 C8     -6.326000    0.334000  122.308000 C5   111 A       0.2006 ****
3457 H8     -6.882000   -0.530000  121.976000 H5   111 A       0.1553 ****
3458 N7     -5.059000    0.362000  122.598000 NB   111 A      -0.6073 ****
3459 C5     -4.811000    1.698000  122.894000 CB   111 A       0.0515 ****
3460 C6     -3.651000    2.380000  123.278000 CA   111 A       0.7009 ****
3461 N6     -2.461000    1.785000  123.439000 N2   111 A      -0.9019 ****
3462 H61    -1.658000    2.329000  123.717000 H    111 A       0.4115 ****
3463 H62    -2.369000    0.791000  123.280000 H    111 A       0.4115 ****
3464 N1     -3.753000    3.699000  123.493000 NC   111 A      -0.7615 ****
3465 C2     -4.936000    4.285000  123.333000 CQ   111 A       0.5875 ****
3466 H2     -5.040000    5.346000  123.501000 H5   111 A       0.0473 ****
3467 N3     -6.090000    3.750000  122.977000 NC   111 A      -0.6997 ****
3468 C4     -5.959000    2.423000  122.767000 CB   111 A       0.3053 ****
3469 C3'   -10.427000    1.149000  121.233000 CT   111 A       0.2022 ****
3470 H3'   -10.849000    0.276000  120.736000 H1   111 A       0.0615 ****
3471 C2'    -8.953000    1.292000  120.848000 CT   111 A       0.0670 ****
3472 H2'    -8.692000    0.526000  120.118000 H1   111 A       0.0972 ****
3473 O2'    -8.731000    2.585000  120.280000 OH   111 A      -0.6139 ****
3474 HO2'   -7.800000    2.636000  120.052000 HO   111 A       0.4186 ****
3475 O3'   -11.091000    2.333000  120.817000 OS   111 A      -0.5246 ****
3476 P      -9.001000    2.412000  119.685000 P    112 G       1.1662 ****
3477 OP1   -10.469000    2.444000  119.499000 O2   112 G      -0.7760 ****
3478 OP2    -8.235000    1.443000  118.869000 O2   112 G      -0.7760 ****
3479 O5'    -8.510000    3.918000  119.459000 OS   112 G      -0.4989 ****
3480 C5'    -8.747000    4.892000  120.493000 CI   112 G       0.0558 ****
3481 H5'    -8.250000    4.577000  121.411000 H1   112 G       0.0679 ****
3482 H5''   -9.819000    4.978000  120.672000 H1   112 G       0.0679 ****
3483 C4'    -8.201000    6.245000  120.067000 CT   112 G       0.1065 ****
3484 H4'    -8.676000    7.030000  120.655000 H1   112 G       0.1174 ****
3485 O4'    -6.789000    6.319000  120.430000 OS   112 G      -0.3548 ****
3486 C1'    -5.981000    6.186000  119.271000 CT   112 G       0.0191 ****
3487 H1'    -5.369000    7.080000  119.149000 H2   112 G       0.2006 ****
3488 N9     -4.984000    5.108000  119.524000 N*   112 G       0.0492 ****
3489 C8     -5.135000    3.740000  119.426000 CP   112 G       0.1374 ****
3490 H8     -6.085000    3.322000  119.129000 H5   112 G       0.1640 ****
3491 N7     -4.054000    3.062000  119.722000 NB   112 G      -0.5709 ****
3492 C5     -3.121000    4.042000  120.037000 CB   112 G       0.1744 ****
3493 C6     -1.763000    3.926000  120.436000 C    112 G       0.4770 ****
3494 O6     -1.091000    2.908000  120.597000 O    112 G      -0.5597 ****
3495 N1     -1.186000    5.183000  120.656000 NA   112 G      -0.4787 ****
3496 H1     -0.229000    5.205000  120.943000 H    112 G       0.3424 ****
3497 C2     -1.833000    6.393000  120.508000 CA   112 G       0.7657 ****
3498 N2     -1.103000    7.486000  120.768000 N2   112 G      -0.9672 ****
3499 H21    -0.139000    7.515000  121.069000 H    112 G       0.4364 ****
3500 H22    -1.571000    8.375000  120.670000 H    112 G       0.4364 ****
3501 N3     -3.104000    6.500000  120.132000 NC   112 G      -0.6323 ****
3502 C4     -3.680000    5.287000  119.914000 CB   112 G       0.1222 ****
3503 C3'    -8.223000    6.528000  118.564000 CT   112 G       0.2022 ****
3504 H3'    -9.059000    6.000000  118.106000 H1   112 G       0.0615 ****
3505 C2'    -6.907000    5.914000  118.084000 CT   112 G       0.0670 ****
3506 H2'    -7.114000    5.137000  117.348000 H1   112 G       0.0972 ****
3507 O2'    -6.096000    6.930000  117.487000 OH   112 G      -0.6139 ****
3508 HO2'   -5.283000    6.507000  117.200000 HO   112 G       0.4186 ****
3509 O3'    -8.221000    7.895000  118.176000 OS   112 G      -0.5246 ****
3510 P      -6.336000    7.091000  116.772000 P    113 A       1.1662 ****
3511 OP1    -7.511000    7.947000  116.496000 O2   113 A      -0.7760 ****
3512 OP2    -6.235000    5.817000  116.025000 O2   113 A      -0.7760 ****
3513 O5'    -5.062000    8.032000  116.545000 OS   113 A      -0.4989 ****
3514 C5'    -4.737000    9.019000  117.541000 CI   113 A       0.0558 ****
3515 H5'    -4.545000    8.526000  118.494000 H1   113 A       0.0679 ****
3516 H5''   -5.571000    9.712000  117.652000 H1   113 A       0.0679 ****
3517 C4'    -3.497000    9.793000  117.121000 CT   113 A       0.1065 ****
3518 H4'    -3.458000   10.738000  117.662000 H1   113 A       0.1174 ****
3519 O4'    -2.313000    9.065000  117.568000 OS   113 A      -0.3548 ****
3520 C1'    -1.684000    8.434000  116.463000 CT   113 A       0.0394 ****
3521 H1'    -0.666000    8.809000  116.360000 H2   113 A       0.2007 ****
3522 N9     -1.475000    6.959000  116.770000 N*   113 A      -0.0251 ****
3523 C8     -2.329000    5.891000  116.688000 C5   113 A       0.2006 ****
3524 H8     -3.347000    6.037000  116.356000 H5   113 A       0.1553 ****
3525 N7     -1.777000    4.751000  116.978000 NB   113 A      -0.6073 ****
3526 C5     -0.459000    5.081000  117.274000 CB   113 A       0.0515 ****
3527 C6      0.644000    4.310000  117.658000 CA   113 A       0.7009 ****
3528 N6      0.598000    2.981000  117.819000 N2   113 A      -0.9019 ****
3529 H61     1.427000    2.477000  118.097000 H    113 A       0.4115 ****
3530 H62    -0.266000    2.483000  117.660000 H    113 A       0.4115 ****
3531 N1      1.801000    4.952000  117.873000 NC   113 A      -0.7615 ****
3532 C2      1.841000    6.272000  117.713000 CQ   113 A       0.5875 ****
3533 H2      2.763000    6.809000  117.881000 H5   113 A       0.0473 ****
3534 N3      0.875000    7.098000  117.357000 NC   113 A      -0.6997 ****
3535 C4     -0.277000    6.427000  117.147000 CB   113 A       0.3053 ****
3536 C3'    -3.296000    9.959000  115.613000 CT   113 A       0.2022 ****
3537 H3'    -4.265000    9.979000  115.116000 H1   113 A       0.0615 ****
3538 C2'    -2.552000    8.678000  115.228000 CT   113 A       0.0670 ****
3539 H2'    -3.140000    8.122000  114.498000 H1   113 A       0.0972 ****
3540 O2'    -1.284000    9.015000  114.660000 OH   113 A      -0.6139 ****
3541 HO2'   -0.850000    8.189000  114.432000 HO   113 A       0.4186 ****
3542 O3'    -2.496000   11.056000  115.197000 OS   113 A      -0.5246 ****
3543 P      -1.501000    9.390000  113.962000 P    114 A       1.1662 ****
3544 OP1    -2.027000   10.746000  113.686000 O2   114 A      -0.7760 ****
3545 OP2    -2.104000    8.264000  113.215000 O2   114 A      -0.7760 ****
3546 O5'     0.079000    9.493000  113.735000 OS   114 A      -0.4989 ****
3547 C5'     0.887000   10.149000  114.731000 CI   114 A       0.0558 ****
3548 H5'     0.781000    9.630000  115.684000 H1   114 A       0.0679 ****
3549 H5''    0.559000   11.182000  114.842000 H1   114 A       0.0679 ****
3550 C4'     2.347000   10.130000  114.311000 CT   114 A       0.1065 ****
3551 H4'     2.892000   10.904000  114.852000 H1   114 A       0.1174 ****
3552 O4'     2.951000    8.878000  114.758000 OS   114 A      -0.3548 ****
3553 C1'     3.139000    8.007000  113.653000 CT   114 A       0.0394 ****
3554 H1'     4.199000    7.773000  113.550000 H2   114 A       0.2007 ****
3555 N9      2.518000    6.654000  113.960000 N*   114 A      -0.0251 ****
3556 C8      1.223000    6.216000  113.878000 C5   114 A       0.2006 ****
3557 H8      0.445000    6.888000  113.546000 H5   114 A       0.1553 ****
3558 N7      1.072000    4.958000  114.168000 NB   114 A      -0.6073 ****
3559 C5      2.359000    4.524000  114.464000 CB   114 A       0.0515 ****
3560 C6      2.871000    3.279000  114.848000 CA   114 A       0.7009 ****
3561 N6      2.114000    2.185000  115.009000 N2   114 A      -0.9019 ****
3562 H61     2.539000    1.313000  115.287000 H    114 A       0.4115 ****
3563 H62     1.117000    2.233000  114.850000 H    114 A       0.4115 ****
3564 N1      4.191000    3.194000  115.063000 NC   114 A      -0.7615 ****
3565 C2      4.937000    4.283000  114.903000 CQ   114 A       0.5875 ****
3566 H2      6.003000    4.237000  115.071000 H5   114 A       0.0473 ****
3567 N3      4.571000    5.500000  114.547000 NC   114 A      -0.6997 ****
3568 C4      3.239000    5.558000  114.337000 CB   114 A       0.3053 ****
3569 C3'     2.607000   10.161000  112.803000 CT   114 A       0.2022 ****
3570 H3'     1.802000   10.702000  112.306000 H1   114 A       0.0615 ****
3571 C2'     2.540000    8.682000  112.418000 CT   114 A       0.0670 ****
3572 H2'     1.745000    8.531000  111.688000 H1   114 A       0.0972 ****
3573 O2'     3.790000    8.279000  111.850000 OH   114 A      -0.6139 ****
3574 HO2'    3.709000    7.350000  111.622000 HO   114 A       0.4186 ****
3575 O3'     3.873000   10.652000  112.387000 OS   114 A      -0.5246 ****
3576 P       3.796000    8.697000  111.190000 P    115 U       1.1662 ****
3577 OP1     4.078000   10.126000  110.923000 O2   115 U      -0.7760 ****
3578 OP2     2.680000    8.076000  110.442000 O2   115 U      -0.7760 ****
3579 O5'     5.184000    7.938000  110.952000 OS   115 U      -0.4989 ****
3580 C5'     6.220000    8.050000  111.945000 CI   115 U       0.0558 ****
3581 H5'     5.856000    7.663000  112.896000 H1   115 U       0.0679 ****
3582 H5''    6.499000    9.098000  112.063000 H1   115 U       0.0679 ****
3583 C4'     7.441000    7.254000  111.515000 CT   115 U       0.1065 ****
3584 H4'     8.318000    7.611000  112.055000 H1   115 U       0.1174 ****
3585 O4'     7.280000    5.870000  111.953000 OS   115 U      -0.3548 ****
3586 C1'     6.967000    5.042000  110.843000 CT   115 U       0.0674 ****
3587 H1'     7.735000    4.276000  110.732000 H2   115 U       0.1824 ****
3588 N1      5.710000    4.226000  111.150000 N*   115 U       0.0418 ****
3589 C6      4.442000    4.728000  111.016000 CS   115 U      -0.1126 ****
3590 H6      4.297000    5.743000  110.678000 H4   115 U       0.2188 ****
3591 C5      3.365000    3.964000  111.244000 CS   115 U      -0.3635 ****
3592 H5      2.365000    4.384000  111.130000 HA   115 U       0.1811 ****
3593 C4      3.508000    2.587000  111.639000 C    115 U       0.5952 ****
3594 O4      2.581000    1.812000  111.870000 O    115 U      -0.5761 ****
3595 N3      4.818000    2.167000  111.750000 NA   115 U      -0.3549 ****
3596 H3      4.977000    1.130000  112.048000 H    115 U       0.3154 ****
3597 C2      5.946000    2.928000  111.522000 C    115 U       0.4687 ****
3598 O2      7.068000    2.466000  111.647000 O    115 U      -0.5477 ****
3599 C3'     7.671000    7.151000  110.006000 CT   115 U       0.2022 ****
3600 H3'     7.281000    8.044000  109.517000 H1   115 U       0.0615 ****
3601 C2'     6.820000    5.941000  109.615000 CT   115 U       0.0670 ****
3602 H2'     6.065000    6.247000  108.889000 H1   115 U       0.0972 ****
3603 O2'     7.656000    4.936000  109.037000 OH   115 U      -0.6139 ****
3604 HO2'    7.088000    4.197000  108.806000 HO   115 U       0.4186 ****
3605 O3'     9.001000    6.889000  109.583000 OS   115 U      -0.5246 ****
3606 P       7.707000    5.238000  108.445000 P    116 G       1.1662 ****
3607 OP1     8.691000    6.328000  108.259000 O2   116 G      -0.7760 ****
3608 OP2     6.473000    5.292000  107.629000 O2   116 G      -0.7760 ****
3609 O5'     8.526000    3.882000  108.219000 OS   116 G      -0.4989 ****
3610 C5'     9.419000    3.425000  109.253000 CI   116 G       0.0558 ****
3611 H5'     8.856000    3.255000  110.171000 H1   116 G       0.0679 ****
3612 H5''   10.184000    4.180000  109.432000 H1   116 G       0.0679 ****
3613 C4'    10.086000    2.128000  108.827000 CT   116 G       0.1065 ****
3614 H4'    10.991000    1.974000  109.415000 H1   116 G       0.1174 ****
3615 O4'     9.220000    1.010000  109.190000 OS   116 G      -0.3548 ****
3616 C1'     8.591000    0.485000  108.031000 CT   116 G       0.0191 ****
3617 H1'     8.868000   -0.562000  107.909000 H2   116 G       0.2006 ****
3618 N9      7.123000    0.435000  108.284000 N*   116 G       0.0492 ****
3619 C8      6.187000    1.444000  108.186000 CP   116 G       0.1374 ****
3620 H8      6.491000    2.436000  107.889000 H5   116 G       0.1640 ****
3621 N7      4.967000    1.068000  108.482000 NB   116 G      -0.5709 ****
3622 C5      5.099000   -0.279000  108.797000 CB   116 G       0.1744 ****
3623 C6      4.124000   -1.231000  109.196000 C    116 G       0.4770 ****
3624 O6      2.915000   -1.074000  109.357000 O    116 G      -0.5597 ****
3625 N1      4.698000   -2.489000  109.416000 NA   116 G      -0.4787 ****
3626 H1      4.090000   -3.228000  109.703000 H    116 G       0.3424 ****
3627 C2      6.037000   -2.789000  109.268000 CA   116 G       0.7657 ****
3628 N2      6.387000   -4.057000  109.528000 N2   116 G      -0.9672 ****
3629 H21     5.780000   -4.805000  109.829000 H    116 G       0.4364 ****
3630 H22     7.366000   -4.283000  109.430000 H    116 G       0.4364 ****
3631 N3      6.949000   -1.897000  108.892000 NC   116 G      -0.6323 ****
3632 C4      6.407000   -0.669000  108.674000 CB   116 G       0.1222 ****
3633 C3'    10.315000    1.959000  107.324000 CT   116 G       0.2022 ****
3634 H3'    10.461000    2.937000  106.866000 H1   116 G       0.0615 ****
3635 C2'     8.990000    1.364000  106.844000 CT   116 G       0.0670 ****
3636 H2'     8.537000    2.029000  106.108000 H1   116 G       0.0972 ****
3637 O2'     9.229000    0.086000  106.247000 OH   116 G      -0.6139 ****
3638 HO2'    8.378000   -0.253000  105.960000 HO   116 G       0.4186 ****
3639 O3'    11.348000    1.065000  106.936000 OS   116 G      -0.5246 ****
3640 P      16.191000    7.519000  106.046000 P    117 A       1.1662 ****
3641 OP1    15.564000    8.831000  106.321000 O2   117 A      -0.7760 ****
3642 OP2    17.420000    7.184000  106.799000 O2   117 A      -0.7760 ****
3643 O5'    15.031000    6.439000  106.266000 OS   117 A      -0.4989 ****
3644 C5'    14.006000    6.303000  105.264000 CI   117 A       0.0558 ****
3645 H5'    14.461000    6.025000  104.313000 H1   117 A       0.0679 ****
3646 H5''   13.479000    7.250000  105.151000 H1   117 A       0.0679 ****
3647 C4'    13.016000    5.226000  105.677000 CT   117 A       0.1065 ****
3648 H4'    12.082000    5.362000  105.131000 H1   117 A       0.1174 ****
3649 O4'    13.515000    3.929000  105.230000 OS   117 A      -0.3548 ****
3650 C1'    14.015000    3.193000  106.337000 CT   117 A       0.0394 ****
3651 H1'    13.458000    2.261000  106.435000 H2   117 A       0.2007 ****
3652 N9     15.427000    2.717000  106.037000 N*   117 A      -0.0251 ****
3653 C8     16.633000    3.360000  106.126000 C5   117 A       0.2006 ****
3654 H8     16.675000    4.386000  106.460000 H5   117 A       0.1553 ****
3655 N7     17.654000    2.607000  105.841000 NB   117 A      -0.6073 ****
3656 C5     17.089000    1.374000  105.539000 CB   117 A       0.0515 ****
3657 C6     17.646000    0.148000  105.157000 CA   117 A       0.7009 ****
3658 N6     18.962000   -0.051000  105.003000 N2   117 A      -0.9019 ****
3659 H61    19.307000   -0.959000  104.725000 H    117 A       0.4115 ****
3660 H62    19.609000    0.707000  105.166000 H    117 A       0.4115 ****
3661 N1     16.803000   -0.871000  104.936000 NC   117 A      -0.7615 ****
3662 C2     15.498000   -0.668000  105.090000 CQ   117 A       0.5875 ****
3663 H2     14.802000   -1.475000  104.917000 H5   117 A       0.0473 ****
3664 N3     14.862000    0.433000  105.444000 NC   117 A      -0.6997 ****
3665 C4     15.732000    1.442000  105.660000 CB   117 A       0.3053 ****
3666 C3'    12.807000    5.056000  107.183000 CT   117 A       0.2022 ****
3667 H3'    12.962000    6.012000  107.682000 H1   117 A       0.0615 ****
3668 C2'    13.927000    4.089000  107.573000 CT   117 A       0.0670 ****
3669 H2'    14.578000    4.564000  108.308000 H1   117 A       0.0972 ****
3670 O2'    13.360000    2.903000  108.136000 OH   117 A      -0.6139 ****
3671 HO2'   14.091000    2.325000  108.367000 HO   117 A       0.4186 ****
3672 O3'    11.579000    4.471000  107.591000 OS   117 A      -0.5246 ****
3673 P      13.248000    3.202000  108.733000 P    118 G       1.1662 ****
3674 OP1    12.029000    4.019000  108.919000 O2   118 G      -0.7760 ****
3675 OP2    14.432000    3.555000  109.548000 O2   118 G      -0.7760 ****
3676 O5'    12.785000    1.688000  108.960000 OS   118 G      -0.4989 ****
3677 C5'    12.030000    1.027000  107.927000 CI   118 G       0.0558 ****
3678 H5'    12.617000    0.998000  107.009000 H1   118 G       0.0679 ****
3679 H5''   11.103000    1.572000  107.748000 H1   118 G       0.0679 ****
3680 C4'    11.699000   -0.394000  108.353000 CT   118 G       0.1065 ****
3681 H4'    10.859000   -0.764000  107.765000 H1   118 G       0.1174 ****
3682 O4'    12.811000   -1.267000  107.990000 OS   118 G      -0.3548 ****
3683 C1'    13.550000   -1.622000  109.149000 CT   118 G       0.0191 ****
3684 H1'    13.537000   -2.706000  109.271000 H2   118 G       0.2006 ****
3685 N9     14.985000   -1.313000  108.896000 N*   118 G       0.0492 ****
3686 C8     15.648000   -0.107000  108.992000 CP   118 G       0.1374 ****
3687 H8     15.111000    0.782000  109.289000 H5   118 G       0.1640 ****
3688 N7     16.922000   -0.174000  108.697000 NB   118 G      -0.5709 ****
3689 C5     17.122000   -1.513000  108.382000 CB   118 G       0.1744 ****
3690 C6     18.300000   -2.198000  107.982000 C    118 G       0.4770 ****
3691 O6     19.434000   -1.752000  107.821000 O    118 G      -0.5597 ****
3692 N1     18.049000   -3.558000  107.763000 NA   118 G      -0.4787 ****
3693 H1     18.820000   -4.127000  107.476000 H    118 G       0.3424 ****
3694 C2     16.824000   -4.176000  107.912000 CA   118 G       0.7657 ****
3695 N2     16.794000   -5.490000  107.653000 N2   118 G      -0.9672 ****
3696 H21    17.565000   -6.069000  107.351000 H    118 G       0.4364 ****
3697 H22    15.899000   -5.949000  107.751000 H    118 G       0.4364 ****
3698 N3     15.723000   -3.533000  108.288000 NC   118 G      -0.6323 ****
3699 C4     15.949000   -2.210000  108.505000 CB   118 G       0.1222 ****
3700 C3'    11.518000   -0.613000  109.856000 CT   118 G       0.2022 ****
3701 H3'    11.139000    0.301000  110.314000 H1   118 G       0.0615 ****
3702 C2'    12.949000   -0.867000  110.336000 CT   118 G       0.0670 ****
3703 H2'    13.226000   -0.111000  111.071000 H1   118 G       0.0972 ****
3704 O2'    13.029000   -2.164000  110.933000 OH   118 G      -0.6139 ****
3705 HO2'   13.937000   -2.285000  111.220000 HO   118 G       0.4186 ****
3706 O3'    10.735000   -1.732000  110.245000 OS   118 G      -0.5246 ****
3707 P      12.763000   -2.140000  111.629000 P    119 U       1.1662 ****
3708 OP1    11.307000   -2.157000  111.894000 O2   119 U      -0.7760 ****
3709 OP2    13.579000   -1.162000  112.382000 O2   119 U      -0.7760 ****
3710 O5'    13.255000   -3.646000  111.858000 OS   119 U      -0.4989 ****
3711 C5'    12.954000   -4.638000  110.860000 CI   119 U       0.0558 ****
3712 H5'    13.403000   -4.347000  109.910000 H1   119 U       0.0679 ****
3713 H5''   11.874000   -4.719000  110.740000 H1   119 U       0.0679 ****
3714 C4'    13.512000   -5.987000  111.283000 CT   119 U       0.1065 ****
3715 H4'    13.000000   -6.780000  110.737000 H1   119 U       0.1174 ****
3716 O4'    14.902000   -6.081000  110.845000 OS   119 U      -0.3548 ****
3717 C1'    15.773000   -5.932000  111.957000 CT   119 U       0.0674 ****
3718 H1'    16.384000   -6.828000  112.064000 H2   119 U       0.1824 ****
3719 N1     16.806000   -4.844000  111.656000 N*   119 U       0.0418 ****
3720 C6     16.546000   -3.507000  111.798000 CS   119 U      -0.1126 ****
3721 H6     15.574000   -3.179000  112.137000 H4   119 U       0.2188 ****
3722 C5     17.495000   -2.587000  111.576000 CS   119 U      -0.3635 ****
3723 H5     17.266000   -1.528000  111.695000 HA   119 U       0.1811 ****
3724 C4     18.823000   -2.979000  111.180000 C    119 U       0.5952 ****
3725 O4     19.755000   -2.208000  110.955000 O    119 U      -0.5761 ****
3726 N3     18.995000   -4.343000  111.061000 NA   119 U      -0.3549 ****
3727 H3     19.985000   -4.689000  110.763000 H    119 U       0.3154 ****
3728 C2     18.039000   -5.313000  111.283000 C    119 U       0.4687 ****
3729 O2     18.287000   -6.500000  111.152000 O    119 U      -0.5477 ****
3730 C3'    13.570000   -6.240000  112.791000 CT   119 U       0.2022 ****
3731 H3'    12.764000   -5.695000  113.282000 H1   119 U       0.0615 ****
3732 C2'    14.915000   -5.628000  113.186000 CT   119 U       0.0670 ****
3733 H2'    14.753000   -4.834000  113.916000 H1   119 U       0.0972 ****
3734 O2'    15.749000   -6.638000  113.759000 OH   119 U      -0.6139 ****
3735 HO2'   16.579000   -6.217000  113.993000 HO   119 U       0.4186 ****
3736 O3'    13.582000   -7.598000  113.206000 OS   119 U      -0.5246 ****
3737 P      15.383000   -6.791000  114.439000 P    120 U       1.1662 ****
3738 OP1    14.167000   -7.592000  114.704000 O2   120 U      -0.7760 ****
3739 OP2    15.541000   -5.527000  115.192000 O2   120 U      -0.7760 ****
3740 O5'    16.610000   -7.792000  114.668000 OS   120 U      -0.4989 ****
3741 C5'    16.894000   -8.790000  113.670000 CI   120 U       0.0558 ****
3742 H5'    17.114000   -8.302000  112.720000 H1   120 U       0.0679 ****
3743 H5''   16.028000   -9.442000  113.550000 H1   120 U       0.0679 ****
3744 C4'    18.092000   -9.624000  114.093000 CT   120 U       0.1065 ****
3745 H4'    18.090000  -10.568000  113.547000 H1   120 U       0.1174 ****
3746 O4'    19.312000   -8.952000  113.655000 OS   120 U      -0.3548 ****
3747 C1'    19.964000   -8.356000  114.767000 CT   120 U       0.0674 ****
3748 H1'    20.963000   -8.780000  114.874000 H2   120 U       0.1824 ****
3749 N1     20.247000   -6.882000  114.466000 N*   120 U       0.0418 ****
3750 C6     19.305000   -5.897000  114.608000 CS   120 U      -0.1126 ****
3751 H6     18.310000   -6.146000  114.947000 H4   120 U       0.2188 ****
3752 C5     19.607000   -4.611000  114.386000 CS   120 U      -0.3635 ****
3753 H5     18.842000   -3.843000  114.505000 HA   120 U       0.1811 ****
3754 C4     20.936000   -4.223000  113.990000 C    120 U       0.5952 ****
3755 O4     21.304000   -3.071000  113.765000 O    120 U      -0.5761 ****
3756 N3     21.818000   -5.278000  113.871000 NA   120 U      -0.3549 ****
3757 H3     22.837000   -5.034000  113.573000 H    120 U       0.3154 ****
3758 C2     21.537000   -6.611000  114.093000 C    120 U       0.4687 ****
3759 O2     22.387000   -7.476000  113.962000 O    120 U      -0.5477 ****
3760 C3'    18.277000   -9.806000  115.601000 CT   120 U       0.2022 ****
3761 H3'    17.304000   -9.783000  116.092000 H1   120 U       0.0615 ****
3762 C2'    19.078000   -8.564000  115.996000 CT   120 U       0.0670 ****
3763 H2'    18.513000   -7.984000  116.726000 H1   120 U       0.0972 ****
3764 O2'    20.326000   -8.963000  116.569000 OH   120 U      -0.6139 ****
3765 HO2'   20.797000   -8.160000  116.803000 HO   120 U       0.4186 ****
3766 O3'    19.021000  -10.942000  116.016000 OS   120 U      -0.5246 ****
3767 P      20.063000   -9.115000  117.163000 P    121 G       1.1662 ****
3768 OP1    19.426000  -10.438000  117.349000 O2   121 G      -0.7760 ****
3769 OP2    19.546000   -7.993000  117.978000 O2   121 G      -0.7760 ****
3770 O5'    21.628000   -9.361000  117.390000 OS   121 G      -0.4989 ****
3771 C5'    22.388000  -10.016000  116.357000 CI   121 G       0.0558 ****
3772 H5'    22.334000   -9.430000  115.439000 H1   121 G       0.0679 ****
3773 H5''   21.979000  -11.010000  116.178000 H1   121 G       0.0679 ****
3774 C4'    23.842000  -10.143000  116.783000 CT   121 G       0.1065 ****
3775 H4'    24.326000  -10.923000  116.195000 H1   121 G       0.1174 ****
3776 O4'    24.549000   -8.918000  116.420000 OS   121 G      -0.3548 ****
3777 C1'    24.797000   -8.137000  117.579000 CT   121 G       0.0191 ****
3778 H1'    25.871000   -7.997000  117.701000 H2   121 G       0.2006 ****
3779 N9     24.289000   -6.760000  117.326000 N*   121 G       0.0492 ****
3780 C8     23.001000   -6.274000  117.422000 CP   121 G       0.1374 ****
3781 H8     22.197000   -6.931000  117.719000 H5   121 G       0.1640 ****
3782 N7     22.887000   -5.003000  117.127000 NB   121 G      -0.5709 ****
3783 C5     24.185000   -4.616000  116.812000 CB   121 G       0.1744 ****
3784 C6     24.698000   -3.354000  116.412000 C    121 G       0.4770 ****
3785 O6     24.096000   -2.293000  116.251000 O    121 G      -0.5597 ****
3786 N1     26.079000   -3.410000  116.193000 NA   121 G      -0.4787 ****
3787 H1     26.534000   -2.567000  115.906000 H    121 G       0.3424 ****
3788 C2     26.864000   -4.536000  116.342000 CA   121 G       0.7657 ****
3789 N2     28.169000   -4.381000  116.083000 N2   121 G      -0.9672 ****
3790 H21    28.633000   -3.536000  115.781000 H    121 G       0.4364 ****
3791 H22    28.749000   -5.202000  116.181000 H    121 G       0.4364 ****
3792 N3     26.382000   -5.717000  116.718000 NC   121 G      -0.6323 ****
3793 C4     25.040000   -5.679000  116.935000 CB   121 G       0.1222 ****
3794 C3'    24.084000  -10.291000  118.286000 CT   121 G       0.2022 ****
3795 H3'    23.233000  -10.795000  118.744000 H1   121 G       0.0615 ****
3796 C2'    24.134000   -8.839000  118.766000 CT   121 G       0.0670 ****
3797 H2'    23.347000   -8.671000  119.501000 H1   121 G       0.0972 ****
3798 O2'    25.406000   -8.577000  119.363000 OH   121 G      -0.6139 ****
3799 HO2'   25.399000   -7.661000  119.650000 HO   121 G       0.4186 ****
3800 O3'    25.302000  -10.909000  118.675000 OS   121 G      -0.5246 ****
3801 P      25.434000   -8.859000  120.096000 P    122 A       1.1662 ****
3802 OP1    25.662000  -10.296000  120.371000 O2   122 A      -0.7760 ****
3803 OP2    24.350000   -8.189000  120.849000 O2   122 A      -0.7760 ****
3804 O5'    26.853000   -8.153000  120.316000 OS   122 A      -0.4989 ****
3805 C5'    27.875000   -8.313000  119.314000 CI   122 A       0.0558 ****
3806 H5'    27.518000   -7.918000  118.363000 H1   122 A       0.0679 ****
3807 H5''   28.111000   -9.372000  119.201000 H1   122 A       0.0679 ****
3808 C4'    29.130000   -7.563000  119.727000 CT   122 A       0.1065 ****
3809 H4'    29.987000   -7.958000  119.181000 H1   122 A       0.1174 ****
3810 O4'    29.020000   -6.177000  119.280000 OS   122 A      -0.3548 ****
3811 C1'    28.750000   -5.329000  120.387000 CT   122 A       0.0394 ****
3812 H1'    29.548000   -4.594000  120.485000 H2   122 A       0.2007 ****
3813 N9     27.531000   -4.472000  120.087000 N*   122 A      -0.0251 ****
3814 C8     26.191000   -4.746000  120.176000 C5   122 A       0.2006 ****
3815 H8     25.860000   -5.718000  120.510000 H5   122 A       0.1553 ****
3816 N7     25.426000   -3.734000  119.891000 NB   122 A      -0.6073 ****
3817 C5     26.319000   -2.712000  119.589000 CB   122 A       0.0515 ****
3818 C6     26.133000   -1.378000  119.207000 CA   122 A       0.7009 ****
3819 N6     24.927000   -0.814000  119.053000 N2   122 A      -0.9019 ****
3820 H61    24.855000    0.154000  118.775000 H    122 A       0.4115 ****
3821 H62    24.091000   -1.357000  119.216000 H    122 A       0.4115 ****
3822 N1     27.230000   -0.641000  118.986000 NC   122 A      -0.7615 ****
3823 C2     28.424000   -1.206000  119.140000 CQ   122 A       0.5875 ****
3824 H2     29.321000   -0.630000  118.967000 H5   122 A       0.0473 ****
3825 N3     28.721000   -2.443000  119.494000 NC   122 A      -0.6997 ****
3826 C4     27.600000   -3.163000  119.710000 CB   122 A       0.3053 ****
3827 C3'    29.378000   -7.459000  121.233000 CT   122 A       0.2022 ****
3828 H3'    28.958000   -8.332000  121.732000 H1   122 A       0.0615 ****
3829 C2'    28.579000   -6.214000  121.623000 CT   122 A       0.0670 ****
3830 H2'    27.820000   -6.484000  122.358000 H1   122 A       0.0972 ****
3831 O2'    29.459000   -5.238000  122.186000 OH   122 A      -0.6139 ****
3832 HO2'   28.923000   -4.476000  122.417000 HO   122 A       0.4186 ****
3833 O3'    30.722000   -7.246000  121.641000 OS   122 A      -0.5246 ****
3834 P      29.676000   -5.600000  122.906000 P    123 A       1.1662 ****
3835 OP1    30.644000   -6.685000  123.181000 O2   123 A      -0.7760 ****
3836 OP2    28.402000   -5.621000  123.659000 O2   123 A      -0.7760 ****
3837 O5'    30.489000   -4.239000  123.126000 OS   123 A      -0.4989 ****
3838 C5'    31.435000   -3.822000  122.124000 CI   123 A       0.0558 ****
3839 H5'    30.921000   -3.683000  121.173000 H1   123 A       0.0679 ****
3840 H5''   32.206000   -4.585000  122.011000 H1   123 A       0.0679 ****
3841 C4'    32.086000   -2.512000  122.537000 CT   123 A       0.1065 ****
3842 H4'    33.020000   -2.382000  121.991000 H1   123 A       0.1174 ****
3843 O4'    31.244000   -1.406000  122.090000 OS   123 A      -0.3548 ****
3844 C1'    30.559000   -0.838000  123.197000 CT   123 A       0.0394 ****
3845 H1'    30.834000    0.212000  123.295000 H2   123 A       0.2007 ****
3846 N9     29.070000   -0.775000  122.897000 N*   123 A      -0.0251 ****
3847 C8     28.091000   -1.729000  122.986000 C5   123 A       0.2006 ****
3848 H8     28.337000   -2.726000  123.320000 H5   123 A       0.1553 ****
3849 N7     26.901000   -1.291000  122.701000 NB   123 A      -0.6073 ****
3850 C5     27.100000    0.051000  122.399000 CB   123 A       0.0515 ****
3851 C6     26.223000    1.073000  122.017000 CA   123 A       0.7009 ****
3852 N6     24.903000    0.897000  121.863000 N2   123 A      -0.9019 ****
3853 H61    24.319000    1.672000  121.585000 H    123 A       0.4115 ****
3854 H62    24.493000   -0.012000  122.026000 H    123 A       0.4115 ****
3855 N1     26.747000    2.286000  121.796000 NC   123 A      -0.7615 ****
3856 C2     28.058000    2.455000  121.950000 CQ   123 A       0.5875 ****
3857 H2     28.501000    3.425000  121.777000 H5   123 A       0.0473 ****
3858 N3     28.976000    1.576000  122.304000 NC   123 A      -0.6997 ****
3859 C4     28.421000    0.364000  122.520000 CB   123 A       0.3053 ****
3860 C3'    32.238000   -2.290000  124.043000 CT   123 A       0.2022 ****
3861 H3'    32.356000   -3.252000  124.542000 H1   123 A       0.0615 ****
3862 C2'    30.893000   -1.675000  124.433000 CT   123 A       0.0670 ****
3863 H2'    30.401000   -2.312000  125.168000 H1   123 A       0.0972 ****
3864 O2'    31.107000   -0.378000  124.996000 OH   123 A      -0.6139 ****
3865 HO2'   30.244000   -0.026000  125.227000 HO   123 A       0.4186 ****
3866 O3'    33.254000   -1.386000  124.451000 OS   123 A      -0.5246 ****
3867 P      31.297000   -0.633000  125.593000 P    124 G       1.1662 ****
3868 OP1    32.697000   -1.078000  125.779000 O2   124 G      -0.7760 ****
3869 OP2    30.259000   -1.303000  126.408000 O2   124 G      -0.7760 ****
3870 O5'    31.320000    0.950000  125.820000 OS   124 G      -0.4989 ****
3871 C5'    31.861000    1.796000  124.787000 CI   124 G       0.0558 ****
3872 H5'    31.289000    1.659000  123.869000 H1   124 G       0.0679 ****
3873 H5''   32.903000    1.530000  124.608000 H1   124 G       0.0679 ****
3874 C4'    31.782000    3.252000  125.213000 CT   124 G       0.1065 ****
3875 H4'    32.486000    3.842000  124.625000 H1   124 G       0.1174 ****
3876 O4'    30.470000    3.780000  124.850000 OS   124 G      -0.3548 ****
3877 C1'    29.662000    3.916000  126.009000 CT   124 G       0.0191 ****
3878 H1'    29.372000    4.959000  126.131000 H2   124 G       0.2006 ****
3879 N9     28.370000    3.218000  125.756000 N*   124 G       0.0492 ****
3880 C8     28.070000    1.875000  125.852000 CP   124 G       0.1374 ****
3881 H8     28.834000    1.171000  126.149000 H5   124 G       0.1640 ****
3882 N7     26.828000    1.583000  125.557000 NB   124 G      -0.5709 ****
3883 C5     26.262000    2.813000  125.242000 CB   124 G       0.1744 ****
3884 C6     24.940000    3.143000  124.842000 C    124 G       0.4770 ****
3885 O6     23.975000    2.398000  124.681000 O    124 G      -0.5597 ****
3886 N1     24.801000    4.519000  124.623000 NA   124 G      -0.4787 ****
3887 H1     23.903000    4.850000  124.336000 H    124 G       0.3424 ****
3888 C2     25.805000    5.454000  124.772000 CA   124 G       0.7657 ****
3889 N2     25.468000    6.725000  124.513000 N2   124 G      -0.9672 ****
3890 H21    24.566000    7.065000  124.211000 H    124 G       0.4364 ****
3891 H22    26.199000    7.415000  124.611000 H    124 G       0.4364 ****
3892 N3     27.042000    5.144000  125.148000 NC   124 G      -0.6323 ****
3893 C4     27.194000    3.810000  125.365000 CB   124 G       0.1222 ****
3894 C3'    31.894000    3.513000  126.716000 CT   124 G       0.2022 ****
3895 H3'    32.514000    2.742000  127.174000 H1   124 G       0.0615 ****
3896 C2'    30.450000    3.358000  127.196000 CT   124 G       0.0670 ****
3897 H2'    30.395000    2.555000  127.931000 H1   124 G       0.0972 ****
3898 O2'    30.011000    4.581000  127.793000 OH   124 G      -0.6139 ****
3899 HO2'   29.105000    4.444000  128.080000 HO   124 G       0.4186 ****
3900 O3'    32.335000    4.806000  127.105000 OS   124 G      -0.5246 ****
3901 P      30.273000    4.632000  128.489000 P    125 U       1.1662 ****
3902 OP1    31.667000    5.054000  128.754000 O2   125 U      -0.7760 ****
3903 OP2    29.763000    3.465000  129.242000 O2   125 U      -0.7760 ****
3904 O5'    29.381000    5.941000  128.718000 OS   125 U      -0.4989 ****
3905 C5'    29.393000    6.978000  127.720000 CI   125 U       0.0558 ****
3906 H5'    29.043000    6.573000  126.770000 H1   125 U       0.0679 ****
3907 H5''   30.408000    7.357000  127.600000 H1   125 U       0.0679 ****
3908 C4'    28.480000    8.118000  128.143000 CT   125 U       0.1065 ****
3909 H4'    28.751000    9.022000  127.597000 H1   125 U       0.1174 ****
3910 O4'    27.120000    7.820000  127.705000 OS   125 U      -0.3548 ****
3911 C1'    26.325000    7.433000  128.817000 CT   125 U       0.0674 ****
3912 H1'    25.488000    8.124000  128.924000 H2   125 U       0.1824 ****
3913 N1     25.636000    6.101000  128.516000 N*   125 U       0.0418 ****
3914 C6     26.259000    4.889000  128.658000 CS   125 U      -0.1126 ****
3915 H6     27.284000    4.845000  128.997000 H4   125 U       0.2188 ****
3916 C5     25.604000    3.741000  128.436000 CS   125 U      -0.3635 ****
3917 H5     26.120000    2.788000  128.555000 HA   125 U       0.1811 ****
3918 C4     24.220000    3.747000  128.040000 C    125 U       0.5952 ****
3919 O4     23.540000    2.747000  127.815000 O    125 U      -0.5761 ****
3920 N3     23.674000    5.009000  127.921000 NA   125 U      -0.3549 ****
3921 H3     22.627000    5.065000  127.623000 H    125 U       0.3154 ****
3922 C2     24.322000    6.207000  128.143000 C    125 U       0.4687 ****
3923 O2     23.752000    7.278000  128.012000 O    125 U      -0.5477 ****
3924 C3'    28.355000    8.345000  129.651000 CT   125 U       0.2022 ****
3925 H3'    29.281000    8.046000  130.142000 H1   125 U       0.0615 ****
3926 C2'    27.234000    7.381000  130.046000 CT   125 U       0.0670 ****
3927 H2'    27.611000    6.664000  130.776000 H1   125 U       0.0972 ****
3928 O2'    26.151000    8.119000  130.619000 OH   125 U      -0.6139 ****
3929 HO2'   25.471000    7.482000  130.853000 HO   125 U       0.4186 ****
3930 O3'    27.964000    9.645000  130.066000 OS   125 U      -0.5246 ****
3931 P      26.462000    8.388000  131.336000 P    126 A       1.1662 ****
3932 OP1    27.401000    9.500000  131.611000 O2   126 A      -0.7760 ****
3933 OP2    26.663000    7.130000  132.089000 O2   126 A      -0.7760 ****
3934 O5'    25.001000    9.001000  131.556000 OS   126 A      -0.4989 ****
3935 C5'    24.454000    9.880000  130.554000 CI   126 A       0.0558 ****
3936 H5'    24.389000    9.351000  129.603000 H1   126 A       0.0679 ****
3937 H5''   25.101000   10.750000  130.441000 H1   126 A       0.0679 ****
3938 C4'    23.066000   10.339000  130.967000 CT   126 A       0.1065 ****
3939 H4'    22.805000   11.246000  130.421000 H1   126 A       0.1174 ****
3940 O4'    22.089000    9.350000  130.520000 OS   126 A      -0.3548 ****
3941 C1'    21.624000    8.592000  131.627000 CT   126 A       0.0394 ****
3942 H1'    20.545000    8.716000  131.725000 H2   126 A       0.2007 ****
3943 N9     21.771000    7.109000  131.327000 N*   126 A      -0.0251 ****
3944 C8     22.854000    6.274000  131.416000 C5   126 A       0.2006 ****
3945 H8     23.806000    6.658000  131.750000 H5   126 A       0.1553 ****
3946 N7     22.588000    5.034000  131.131000 NB   126 A      -0.6073 ****
3947 C5     21.231000    5.042000  130.829000 CB   126 A       0.0515 ****
3948 C6     20.343000    4.029000  130.447000 CA   126 A       0.7009 ****
3949 N6     20.703000    2.748000  130.293000 N2   126 A      -0.9019 ****
3950 H61    20.018000    2.060000  130.015000 H    126 A       0.4115 ****
3951 H62    21.660000    2.470000  130.456000 H    126 A       0.4115 ****
3952 N1     19.068000    4.378000  130.226000 NC   126 A      -0.7615 ****
3953 C2     18.716000    5.651000  130.380000 CQ   126 A       0.5875 ****
3954 H2     17.693000    5.953000  130.207000 H5   126 A       0.0473 ****
3955 N3     19.457000    6.684000  130.734000 NC   126 A      -0.6997 ****
3956 C4     20.735000    6.306000  130.950000 CB   126 A       0.3053 ****
3957 C3'    22.825000   10.459000  132.473000 CT   126 A       0.2022 ****
3958 H3'    23.761000   10.711000  132.972000 H1   126 A       0.0615 ****
3959 C2'    22.405000    9.040000  132.863000 CT   126 A       0.0670 ****
3960 H2'    23.106000    8.643000  133.598000 H1   126 A       0.0972 ****
3961 O2'    21.091000    9.069000  133.426000 OH   126 A      -0.6139 ****
3962 HO2'   20.864000    8.165000  133.657000 HO   126 A       0.4186 ****
3963 O3'    21.787000   11.337000  132.881000 OS   126 A      -0.5246 ****
3964 P      21.232000    9.450000  134.109000 P    127 U       1.1662 ****
3965 OP1    21.428000   10.893000  134.374000 O2   127 U      -0.7760 ****
3966 OP2    22.081000    8.501000  134.862000 O2   127 U      -0.7760 ****
3967 O5'    19.671000    9.184000  134.338000 OS   127 U      -0.4989 ****
3968 C5'    18.733000    9.627000  133.340000 CI   127 U       0.0558 ****
3969 H5'    18.956000    9.140000  132.390000 H1   127 U       0.0679 ****
3970 H5''   18.811000   10.707000  133.220000 H1   127 U       0.0679 ****
3971 C4'    17.317000    9.271000  133.763000 CT   127 U       0.1065 ****
3972 H4'    16.607000    9.894000  133.217000 H1   127 U       0.1174 ****
3973 O4'    17.021000    7.910000  133.325000 OS   127 U      -0.3548 ****
3974 C1'    17.042000    7.027000  134.437000 CT   127 U       0.0674 ****
3975 H1'    16.066000    6.553000  134.544000 H2   127 U       0.1824 ****
3976 N1     17.966000    5.845000  134.136000 N*   127 U       0.0418 ****
3977 C6     19.328000    5.908000  134.278000 CS   127 U      -0.1126 ****
3978 H6     19.794000    6.821000  134.617000 H4   127 U       0.2188 ****
3979 C5     20.099000    4.835000  134.056000 CS   127 U      -0.3635 ****
3980 H5     21.180000    4.906000  134.175000 HA   127 U       0.1811 ****
3981 C4     19.517000    3.578000  133.660000 C    127 U       0.5952 ****
3982 O4     20.143000    2.544000  133.435000 O    127 U      -0.5761 ****
3983 N3     18.143000    3.607000  133.541000 NA   127 U      -0.3549 ****
3984 H3     17.656000    2.678000  133.243000 H    127 U       0.3154 ****
3985 C2     17.323000    4.695000  133.763000 C    127 U       0.4687 ****
3986 O2     16.112000    4.623000  133.632000 O    127 U      -0.5477 ****
3987 C3'    17.058000    9.252000  135.271000 CT   127 U       0.2022 ****
3988 H3'    17.715000    9.969000  135.762000 H1   127 U       0.0615 ****
3989 C2'    17.467000    7.832000  135.666000 CT   127 U       0.0670 ****
3990 H2'    18.276000    7.876000  136.396000 H1   127 U       0.0972 ****
3991 O2'    16.346000    7.154000  136.239000 OH   127 U      -0.6139 ****
3992 HO2'   16.642000    6.271000  136.473000 HO   127 U       0.4186 ****
3993 O3'    15.713000    9.438000  135.686000 OS   127 U      -0.5246 ****
3994 P      16.231000    7.549000  136.956000 P    128 A3      1.1662 ****
3995 OP1    15.611000    8.865000  137.231000 O2   128 A3     -0.7760 ****
3996 OP2    17.458000    7.208000  137.709000 O2   128 A3     -0.7760 ****
3997 O5'    15.065000    6.475000  137.176000 OS   128 A3     -0.4989 ****
3998 C5'    14.039000    6.344000  136.174000 CI   128 A3      0.0558 ****
3999 H5'    14.492000    6.065000  135.223000 H1   128 A3      0.0679 ****
4000 H5''   13.517000    7.295000  136.061000 H1   128 A3      0.0679 ****
4001 C4'    13.043000    5.273000  136.587000 CT   128 A3      0.1065 ****
4002 H4'    12.110000    5.414000  136.041000 H1   128 A3      0.1174 ****
4003 O4'    13.536000    3.973000  136.140000 OS   128 A3     -0.3548 ****
4004 C1'    14.031000    3.234000  137.247000 CT   128 A3      0.0394 ****
4005 H1'    13.470000    2.305000  137.345000 H2   128 A3      0.2007 ****
4006 N9     15.441000    2.751000  136.947000 N*   128 A3     -0.0251 ****
4007 C8     16.651000    3.388000  137.036000 C5   128 A3      0.2006 ****
4008 H8     16.698000    4.414000  137.370000 H5   128 A3      0.1553 ****
4009 N7     17.668000    2.630000  136.751000 NB   128 A3     -0.6073 ****
4010 C5     17.096000    1.399000  136.449000 CB   128 A3      0.0515 ****
4011 C6     17.646000    0.170000  136.067000 CA   128 A3      0.7009 ****
4012 N6     18.962000   -0.035000  135.913000 N2   128 A3     -0.9019 ****
4013 H61    19.302000   -0.945000  135.635000 H    128 A3      0.4115 ****
4014 H62    19.613000    0.719000  136.076000 H    128 A3      0.4115 ****
4015 N1     16.799000   -0.844000  135.846000 NC   128 A3     -0.7615 ****
4016 C2     15.495000   -0.634000  136.000000 CQ   128 A3      0.5875 ****
4017 H2     14.794000   -1.437000  135.827000 H5   128 A3      0.0473 ****
4018 N3     14.864000    0.471000  136.354000 NC   128 A3     -0.6997 ****
4019 C4     15.740000    1.475000  136.570000 CB   128 A3      0.3053 ****
4020 C3'    12.834000    5.104000  138.093000 CT   128 A3      0.2022 ****
4021 H3'    12.994000    6.060000  138.592000 H1   128 A3      0.0615 ****
4022 C2'    13.949000    4.132000  138.483000 CT   128 A3      0.0670 ****
4023 H2'    14.602000    4.603000  139.218000 H1   128 A3      0.0972 ****
4024 O2'    13.375000    2.949000  139.046000 OH   128 A3     -0.6139 ****
4025 HO2'   14.103000    2.367000  139.277000 HO   128 A3      0.4186 ****
4026 O3'    11.603000    4.525000  138.501000 OH   128 A3     -0.6541 ****
4027 HO3'   11.495000    4.430000  139.450000 HO   128 A3      0.4376 ****
4028 HO5'    9.279000   -0.331000   74.638000 HO   129 C5      0.4295 ****
4029 O5'     9.263000   -1.281000   74.500000 OH   129 C5     -0.6223 ****
4030 C5'     9.782000   -2.145000   75.528000 CI   129 C5      0.0558 ****
4031 H5'     9.220000   -1.994000   76.449000 H1   129 C5      0.0679 ****
4032 H5''   10.833000   -1.913000   75.702000 H1   129 C5      0.0679 ****
4033 C4'     9.657000   -3.598000   75.098000 CT   129 C5      0.1065 ****
4034 H4'    10.345000   -4.210000   75.681000 H1   129 C5      0.1174 ****
4035 O4'     8.331000   -4.086000   75.467000 OS   129 C5     -0.3548 ****
4036 C1'     7.513000   -4.194000   74.311000 CT   129 C5      0.0066 ****
4037 H1'     7.191000   -5.228000   74.188000 H2   129 C5      0.2029 ****
4038 N1      6.244000   -3.458000   74.572000 N*   129 C5     -0.0484 ****
4039 C6      6.173000   -2.108000   74.428000 C4   129 C5      0.0053 ****
4040 H6      7.045000   -1.550000   74.119000 H4   129 C5      0.1958 ****
4041 C5      5.013000   -1.438000   74.666000 C4   129 C5     -0.5215 ****
4042 H5      4.974000   -0.356000   74.546000 HA   129 C5      0.1928 ****
4043 C4      3.886000   -2.220000   75.072000 CA   129 C5      0.8185 ****
4044 N4      2.729000   -1.635000   75.320000 N2   129 C5     -0.9530 ****
4045 H41     1.958000   -2.222000   75.604000 H    129 C5      0.4234 ****
4046 H42     2.634000   -0.634000   75.225000 H    129 C5      0.4234 ****
4047 N3      3.965000   -3.541000   75.210000 NC   129 C5     -0.7584 ****
4048 C2      5.134000   -4.191000   74.967000 C    129 C5      0.7538 ****
4049 O2      5.248000   -5.421000   75.085000 O    129 C5     -0.6252 ****
4050 C3'     9.754000   -3.858000   73.593000 CT   129 C5      0.2022 ****
4051 H3'    10.394000   -3.105000   73.135000 H1   129 C5      0.0615 ****
4052 C2'     8.312000   -3.657000   73.121000 CT   129 C5      0.0670 ****
4053 H2'     8.278000   -2.851000   72.389000 H1   129 C5      0.0972 ****
4054 O2'     7.833000   -4.865000   72.523000 OH   129 C5     -0.6139 ****
4055 HO2'    6.931000   -4.699000   72.241000 HO   129 C5      0.4186 ****
4056 O3'    10.152000   -5.162000   73.199000 OS   129 C5     -0.5246 ****
4057 P       8.115000   -4.957000   71.812000 P    130 A       1.1662 ****
4058 OP1     9.488000   -5.437000   71.536000 O2   130 A      -0.7760 ****
4059 OP2     7.650000   -3.767000   71.065000 O2   130 A      -0.7760 ****
4060 O5'     7.167000   -6.226000   71.585000 OS   130 A      -0.4989 ****
4061 C5'     7.141000   -7.265000   72.581000 CI   130 A       0.0558 ****
4062 H5'     6.816000   -6.848000   73.534000 H1   130 A       0.0679 ****
4063 H5''    8.140000   -7.688000   72.692000 H1   130 A       0.0679 ****
4064 C4'     6.178000   -8.364000   72.161000 CT   130 A       0.1065 ****
4065 H4'     6.414000   -9.280000   72.702000 H1   130 A       0.1174 ****
4066 O4'     4.834000   -8.010000   72.608000 OS   130 A      -0.3548 ****
4067 C1'     4.050000   -7.587000   71.503000 CT   130 A       0.0394 ****
4068 H1'     3.183000   -8.241000   71.400000 H2   130 A       0.2007 ****
4069 N9      3.424000   -6.236000   71.810000 N*   130 A      -0.0251 ****
4070 C8      3.933000   -4.967000   71.728000 C5   130 A       0.2006 ****
4071 H8      4.949000   -4.812000   71.396000 H5   130 A       0.1553 ****
4072 N7      3.074000   -4.035000   72.018000 NB   130 A      -0.6073 ****
4073 C5      1.908000   -4.732000   72.314000 CB   130 A       0.0515 ****
4074 C6      0.629000   -4.313000   72.698000 CA   130 A       0.7009 ****
4075 N6      0.289000   -3.026000   72.859000 N2   130 A      -0.9019 ****
4076 H61    -0.651000   -2.783000   73.137000 H    130 A       0.4115 ****
4077 H62     0.973000   -2.300000   72.700000 H    130 A       0.4115 ****
4078 N1     -0.293000   -5.261000   72.913000 NC   130 A      -0.7615 ****
4079 C2      0.050000   -6.536000   72.753000 CQ   130 A       0.5875 ****
4080 H2     -0.677000   -7.316000   72.921000 H5   130 A       0.0473 ****
4081 N3      1.214000   -7.048000   72.397000 NC   130 A      -0.6997 ****
4082 C4      2.123000   -6.072000   72.187000 CB   130 A       0.3053 ****
4083 C3'     6.033000   -8.581000   70.653000 CT   130 A       0.2022 ****
4084 H3'     6.968000   -8.321000   70.156000 H1   130 A       0.0615 ****
4085 C2'     4.952000   -7.570000   70.268000 CT   130 A       0.0670 ****
4086 H2'     5.354000   -6.868000   69.538000 H1   130 A       0.0972 ****
4087 O2'     3.834000   -8.259000   69.700000 OH   130 A      -0.6139 ****
4088 HO2'    3.181000   -7.594000   69.472000 HO   130 A       0.4186 ****
4089 O3'     5.585000   -9.863000   70.237000 OS   130 A      -0.5246 ****
4090 P       4.143000   -8.346000   69.105000 P    131 G       1.1662 ****
4091 OP1     5.090000   -9.469000   68.919000 O2   131 G      -0.7760 ****
4092 OP2     4.364000   -7.132000   68.289000 O2   131 G      -0.7760 ****
4093 O5'     2.689000   -8.974000   68.879000 OS   131 G      -0.4989 ****
4094 C5'     2.115000   -9.797000   69.913000 CI   131 G       0.0558 ****
4095 H5'     2.023000   -9.216000   70.831000 H1   131 G       0.0679 ****
4096 H5''    2.759000  -10.658000   70.092000 H1   131 G       0.0679 ****
4097 C4'     0.739000  -10.282000   69.487000 CT   131 G       0.1065 ****
4098 H4'     0.464000  -11.157000   70.075000 H1   131 G       0.1174 ****
4099 O4'    -0.251000   -9.272000   69.850000 OS   131 G      -0.3548 ****
4100 C1'    -0.685000   -8.577000   68.691000 CT   131 G       0.0191 ****
4101 H1'    -1.761000   -8.709000   68.569000 H2   131 G       0.2006 ****
4102 N9     -0.536000   -7.116000   68.944000 N*   131 G       0.0492 ****
4103 C8      0.591000   -6.325000   68.846000 CP   131 G       0.1374 ****
4104 H8      1.533000   -6.761000   68.549000 H5   131 G       0.1640 ****
4105 N7      0.384000   -5.066000   69.142000 NB   131 G      -0.5709 ****
4106 C5     -0.969000   -5.014000   69.457000 CB   131 G       0.1744 ****
4107 C6     -1.779000   -3.919000   69.856000 C    131 G       0.4770 ****
4108 O6     -1.460000   -2.742000   70.017000 O    131 G      -0.5597 ****
4109 N1     -3.103000   -4.317000   70.076000 NA   131 G      -0.4787 ****
4110 H1     -3.753000   -3.614000   70.363000 H    131 G       0.3424 ****
4111 C2     -3.583000   -5.603000   69.928000 CA   131 G       0.7657 ****
4112 N2     -4.886000   -5.777000   70.188000 N2   131 G      -0.9672 ****
4113 H21    -5.545000   -5.074000   70.489000 H    131 G       0.4364 ****
4114 H22    -5.243000   -6.717000   70.090000 H    131 G       0.4364 ****
4115 N3     -2.823000   -6.627000   69.552000 NC   131 G      -0.6323 ****
4116 C4     -1.532000   -6.256000   69.334000 CB   131 G       0.1222 ****
4117 C3'     0.541000  -10.486000   67.984000 CT   131 G       0.2022 ****
4118 H3'     1.491000  -10.763000   67.526000 H1   131 G       0.0615 ****
4119 C2'     0.131000   -9.092000   67.504000 CT   131 G       0.0670 ****
4120 H2'     0.851000   -8.734000   66.768000 H1   131 G       0.0972 ****
4121 O2'    -1.167000   -9.155000   66.907000 OH   131 G      -0.6139 ****
4122 HO2'   -1.388000   -8.266000   66.620000 HO   131 G       0.4186 ****
4123 O3'    -0.485000  -11.388000   67.596000 OS   131 G      -0.5246 ****
4124 P      -1.129000   -9.442000   66.192000 P    132 A       1.1662 ****
4125 OP1    -0.994000  -10.890000   65.916000 O2   132 A      -0.7760 ****
4126 OP2    -0.240000   -8.524000   65.445000 O2   132 A      -0.7760 ****
4127 O5'    -2.677000   -9.108000   65.965000 OS   132 A      -0.4989 ****
4128 C5'    -3.633000   -9.518000   66.961000 CI   132 A       0.0558 ****
4129 H5'    -3.390000   -9.048000   67.914000 H1   132 A       0.0679 ****
4130 H5''   -3.601000  -10.601000   67.072000 H1   132 A       0.0679 ****
4131 C4'    -5.033000   -9.099000   66.541000 CT   132 A       0.1065 ****
4132 H4'    -5.768000   -9.695000   67.082000 H1   132 A       0.1174 ****
4133 O4'    -5.270000   -7.730000   66.988000 OS   132 A      -0.3548 ****
4134 C1'    -5.213000   -6.840000   65.883000 CT   132 A       0.0394 ****
4135 H1'    -6.168000   -6.325000   65.780000 H2   132 A       0.2007 ****
4136 N9     -4.245000   -5.709000   66.190000 N*   132 A      -0.0251 ****
4137 C8     -2.879000   -5.643000   66.108000 C5   132 A       0.2006 ****
4138 H8     -2.315000   -6.503000   65.776000 H5   132 A       0.1553 ****
4139 N7     -2.389000   -4.474000   66.398000 NB   132 A      -0.6073 ****
4140 C5     -3.508000   -3.705000   66.694000 CB   132 A       0.0515 ****
4141 C6     -3.659000   -2.367000   67.078000 CA   132 A       0.7009 ****
4142 N6     -2.631000   -1.523000   67.239000 N2   132 A      -0.9019 ****
4143 H61    -2.802000   -0.567000   67.517000 H    132 A       0.4115 ****
4144 H62    -1.686000   -1.842000   67.080000 H    132 A       0.4115 ****
4145 N1     -4.906000   -1.924000   67.293000 NC   132 A      -0.7615 ****
4146 C2     -5.922000   -2.767000   67.133000 CQ   132 A       0.5875 ****
4147 H2     -6.934000   -2.430000   67.301000 H5   132 A       0.0473 ****
4148 N3     -5.903000   -4.038000   66.777000 NC   132 A      -0.6997 ****
4149 C4     -4.637000   -4.458000   66.567000 CB   132 A       0.3053 ****
4150 C3'    -5.291000   -9.058000   65.033000 CT   132 A       0.2022 ****
4151 H3'    -4.665000   -9.799000   64.536000 H1   132 A       0.0615 ****
4152 C2'    -4.821000   -7.653000   64.648000 CT   132 A       0.0670 ****
4153 H2'    -4.015000   -7.727000   63.918000 H1   132 A       0.0972 ****
4154 O2'    -5.913000   -6.924000   64.080000 OH   132 A      -0.6139 ****
4155 HO2'   -5.580000   -6.053000   63.852000 HO   132 A       0.4186 ****
4156 O3'    -6.643000   -9.183000   64.617000 OS   132 A      -0.5246 ****
4157 P      -6.051000   -7.336000   63.382000 P    133 A       1.1662 ****
4158 OP1    -6.720000   -8.627000   63.106000 O2   133 A      -0.7760 ****
4159 OP2    -4.807000   -7.043000   62.635000 O2   133 A      -0.7760 ****
4160 O5'    -7.174000   -6.218000   63.155000 OS   133 A      -0.4989 ****
4161 C5'    -8.199000   -6.046000   64.151000 CI   133 A       0.0558 ****
4162 H5'    -7.740000   -5.783000   65.104000 H1   133 A       0.0679 ****
4163 H5''   -8.758000   -6.976000   64.262000 H1   133 A       0.0679 ****
4164 C4'    -9.151000   -4.938000   63.731000 CT   133 A       0.1065 ****
4165 H4'   -10.092000   -5.042000   64.272000 H1   133 A       0.1174 ****
4166 O4'    -8.611000   -3.658000   64.178000 OS   133 A      -0.3548 ****
4167 C1'    -8.082000   -2.940000   63.073000 CT   133 A       0.0394 ****
4168 H1'    -8.607000   -1.991000   62.970000 H2   133 A       0.2007 ****
4169 N9     -6.656000   -2.511000   63.380000 N*   133 A      -0.0251 ****
4170 C8     -5.471000   -3.194000   63.298000 C5   133 A       0.2006 ****
4171 H8     -5.462000   -4.221000   62.966000 H5   133 A       0.1553 ****
4172 N7     -4.428000   -2.475000   63.588000 NB   133 A      -0.6073 ****
4173 C5     -4.953000   -1.223000   63.884000 CB   133 A       0.0515 ****
4174 C6     -4.358000   -0.015000   64.268000 CA   133 A       0.7009 ****
4175 N6     -3.037000    0.140000   64.429000 N2   133 A      -0.9019 ****
4176 H61    -2.664000    1.036000   64.707000 H    133 A       0.4115 ****
4177 H62    -2.414000   -0.639000   64.270000 H    133 A       0.4115 ****
4178 N1     -5.168000    1.031000   64.483000 NC   133 A      -0.7615 ****
4179 C2     -6.478000    0.871000   64.323000 CQ   133 A       0.5875 ****
4180 H2     -7.148000    1.701000   64.491000 H5   133 A       0.0473 ****
4181 N3     -7.149000   -0.209000   63.967000 NC   133 A      -0.6997 ****
4182 C4     -6.311000   -1.246000   63.757000 CB   133 A       0.3053 ****
4183 C3'    -9.346000   -4.764000   62.223000 CT   133 A       0.2022 ****
4184 H3'    -9.219000   -5.726000   61.726000 H1   133 A       0.0615 ****
4185 C2'    -8.192000   -3.836000   61.838000 CT   133 A       0.0670 ****
4186 H2'    -7.553000   -4.333000   61.108000 H1   133 A       0.0972 ****
4187 O2'    -8.717000   -2.633000   61.270000 OH   133 A      -0.6139 ****
4188 HO2'   -7.966000   -2.079000   61.042000 HO   133 A       0.4186 ****
4189 O3'   -10.551000   -4.139000   61.807000 OS   133 A      -0.5246 ****
4190 P      -9.055000   -2.904000   60.572000 P    134 A       1.1662 ****
4191 OP1   -10.315000   -3.630000   60.296000 O2   134 A      -0.7760 ****
4192 OP2    -7.850000   -3.330000   59.825000 O2   134 A      -0.7760 ****
4193 O5'    -9.396000   -1.357000   60.345000 OS   134 A      -0.4989 ****
4194 C5'   -10.166000   -0.659000   61.341000 CI   134 A       0.0558 ****
4195 H5'    -9.638000   -0.684000   62.294000 H1   134 A       0.0679 ****
4196 H5''  -11.138000   -1.139000   61.452000 H1   134 A       0.0679 ****
4197 C4'   -10.369000    0.788000   60.921000 CT   134 A       0.1065 ****
4198 H4'   -11.216000    1.209000   61.462000 H1   134 A       0.1174 ****
4199 O4'    -9.222000    1.574000   61.368000 OS   134 A      -0.3548 ****
4200 C1'    -8.389000    1.892000   60.263000 CT   134 A       0.0394 ****
4201 H1'    -8.318000    2.975000   60.160000 H2   134 A       0.2007 ****
4202 N9     -6.958000    1.483000   60.570000 N*   134 A      -0.0251 ****
4203 C8     -6.329000    0.268000   60.488000 C5   134 A       0.2006 ****
4204 H8     -6.877000   -0.602000   60.156000 H5   134 A       0.1553 ****
4205 N7     -5.063000    0.309000   60.778000 NB   134 A      -0.6073 ****
4206 C5     -4.829000    1.647000   61.074000 CB   134 A       0.0515 ****
4207 C6     -3.676000    2.342000   61.458000 CA   134 A       0.7009 ****
4208 N6     -2.480000    1.759000   61.619000 N2   134 A      -0.9019 ****
4209 H61    -1.682000    2.311000   61.897000 H    134 A       0.4115 ****
4210 H62    -2.377000    0.766000   61.460000 H    134 A       0.4115 ****
4211 N1     -3.791000    3.659000   61.673000 NC   134 A      -0.7615 ****
4212 C2     -4.981000    4.233000   61.513000 CQ   134 A       0.5875 ****
4213 H2     -5.096000    5.293000   61.681000 H5   134 A       0.0473 ****
4214 N3     -6.129000    3.686000   61.157000 NC   134 A      -0.6997 ****
4215 C4     -5.984000    2.361000   60.947000 CB   134 A       0.3053 ****
4216 C3'   -10.438000    1.040000   59.413000 CT   134 A       0.2022 ****
4217 H3'   -10.852000    0.162000   58.916000 H1   134 A       0.0615 ****
4218 C2'    -8.966000    1.198000   59.028000 CT   134 A       0.0670 ****
4219 H2'    -8.697000    0.434000   58.298000 H1   134 A       0.0972 ****
4220 O2'    -8.757000    2.494000   58.460000 OH   134 A      -0.6139 ****
4221 HO2'   -7.827000    2.554000   58.232000 HO   134 A       0.4186 ****
4222 O3'   -11.115000    2.217000   58.997000 OS   134 A      -0.5246 ****
4223 P      -9.171000    2.437000   57.800000 P    135 U       1.1662 ****
4224 OP1   -10.626000    2.500000   57.533000 O2   135 U      -0.7760 ****
4225 OP2    -8.388000    1.427000   57.052000 O2   135 U      -0.7760 ****
4226 O5'    -8.630000    3.923000   57.562000 OS   135 U      -0.4989 ****
4227 C5'    -8.899000    4.931000   58.555000 CI   135 U       0.0558 ****
4228 H5'    -8.460000    4.630000   59.506000 H1   135 U       0.0679 ****
4229 H5''   -9.976000    5.048000   58.673000 H1   135 U       0.0679 ****
4230 C4'    -8.296000    6.258000   58.125000 CT   135 U       0.1065 ****
4231 H4'    -8.782000    7.071000   58.665000 H1   135 U       0.1174 ****
4232 O4'    -6.904000    6.309000   58.563000 OS   135 U      -0.3548 ****
4233 C1'    -6.038000    6.124000   57.453000 CT   135 U       0.0674 ****
4234 H1'    -5.397000    6.999000   57.342000 H2   135 U       0.1824 ****
4235 N1     -5.041000    5.005000   57.760000 N*   135 U       0.0418 ****
4236 C6     -5.345000    3.676000   57.626000 CS   135 U      -0.1126 ****
4237 H6     -6.327000    3.378000   57.288000 H4   135 U       0.2188 ****
4238 C5     -4.428000    2.727000   57.854000 CS   135 U      -0.3635 ****
4239 H5     -4.691000    1.675000   57.740000 HA   135 U       0.1811 ****
4240 C4     -3.088000    3.077000   58.249000 C    135 U       0.5952 ****
4241 O4     -2.182000    2.277000   58.480000 O    135 U      -0.5761 ****
4242 N3     -2.871000    4.435000   58.360000 NA   135 U      -0.3549 ****
4243 H3     -1.870000    4.749000   58.658000 H    135 U       0.3154 ****
4244 C2     -3.794000    5.435000   58.132000 C    135 U       0.4687 ****
4245 O2     -3.507000    6.614000   58.257000 O    135 U      -0.5477 ****
4246 C3'    -8.229000    6.501000   56.616000 CT   135 U       0.2022 ****
4247 H3'    -9.052000    5.980000   56.127000 H1   135 U       0.0615 ****
4248 C2'    -6.905000    5.842000   56.225000 CT   135 U       0.0670 ****
4249 H2'    -7.092000    5.051000   55.499000 H1   135 U       0.0972 ****
4250 O2'    -6.037000    6.821000   55.647000 OH   135 U      -0.6139 ****
4251 HO2'   -5.221000    6.372000   55.416000 HO   135 U       0.4186 ****
4252 O3'    -8.171000    7.856000   56.193000 OS   135 U      -0.5246 ****
4253 P      -6.402000    7.005000   54.990000 P    136 U       1.1662 ****
4254 OP1    -7.591000    7.844000   54.723000 O2   136 U      -0.7760 ****
4255 OP2    -6.288000    5.733000   54.242000 O2   136 U      -0.7760 ****
4256 O5'    -5.143000    7.964000   54.752000 OS   136 U      -0.4989 ****
4257 C5'    -4.824000    8.957000   55.745000 CI   136 U       0.0558 ****
4258 H5'    -4.618000    8.467000   56.696000 H1   136 U       0.0679 ****
4259 H5''   -5.668000    9.638000   55.863000 H1   136 U       0.0679 ****
4260 C4'    -3.600000    9.748000   55.315000 CT   136 U       0.1065 ****
4261 H4'    -3.570000   10.694000   55.855000 H1   136 U       0.1174 ****
4262 O4'    -2.402000    9.039000   55.753000 OS   136 U      -0.3548 ****
4263 C1'    -1.772000    8.415000   54.643000 CT   136 U       0.0674 ****
4264 H1'    -0.760000    8.806000   54.532000 H2   136 U       0.1824 ****
4265 N1     -1.538000    6.935000   54.950000 N*   136 U       0.0418 ****
4266 C6     -2.512000    5.981000   54.816000 CS   136 U      -0.1126 ****
4267 H6     -3.499000    6.261000   54.478000 H4   136 U       0.2188 ****
4268 C5     -2.253000    4.686000   55.044000 CS   136 U      -0.3635 ****
4269 H5     -3.043000    3.944000   54.930000 HA   136 U       0.1811 ****
4270 C4     -0.936000    4.257000   55.439000 C    136 U       0.5952 ****
4271 O4     -0.606000    3.095000   55.670000 O    136 U      -0.5761 ****
4272 N3     -0.020000    5.283000   55.550000 NA   136 U      -0.3549 ****
4273 H3      0.992000    5.007000   55.848000 H    136 U       0.3154 ****
4274 C2     -0.257000    6.623000   55.322000 C    136 U       0.4687 ****
4275 O2      0.622000    7.460000   55.447000 O    136 U      -0.5477 ****
4276 C3'    -3.413000    9.916000   53.806000 CT   136 U       0.2022 ****
4277 H3'    -4.387000    9.923000   53.317000 H1   136 U       0.0615 ****
4278 C2'    -2.654000    8.647000   53.415000 CT   136 U       0.0670 ****
4279 H2'    -3.240000    8.082000   52.689000 H1   136 U       0.0972 ****
4280 O2'    -1.395000    9.002000   52.837000 OH   136 U      -0.6139 ****
4281 HO2'   -0.951000    8.182000   52.606000 HO   136 U       0.4186 ****
4282 O3'    -2.632000   11.025000   53.383000 OS   136 U      -0.5246 ****
4283 P      -1.599000    9.374000   52.142000 P    137 A       1.1662 ****
4284 OP1    -2.140000   10.724000   51.866000 O2   137 A      -0.7760 ****
4285 OP2    -2.190000    8.241000   51.395000 O2   137 A      -0.7760 ****
4286 O5'    -0.020000    9.494000   51.915000 OS   137 A      -0.4989 ****
4287 C5'     0.780000   10.158000   52.911000 CI   137 A       0.0558 ****
4288 H5'     0.680000    9.638000   53.864000 H1   137 A       0.0679 ****
4289 H5''    0.442000   11.188000   53.022000 H1   137 A       0.0679 ****
4290 C4'     2.241000   10.154000   52.491000 CT   137 A       0.1065 ****
4291 H4'     2.777000   10.934000   53.032000 H1   137 A       0.1174 ****
4292 O4'     2.858000    8.909000   52.938000 OS   137 A      -0.3548 ****
4293 C1'     3.055000    8.039000   51.833000 CT   137 A       0.0394 ****
4294 H1'     4.117000    7.816000   51.730000 H2   137 A       0.2007 ****
4295 N9      2.448000    6.680000   52.140000 N*   137 A      -0.0251 ****
4296 C8      1.157000    6.228000   52.058000 C5   137 A       0.2006 ****
4297 H8      0.373000    6.893000   51.726000 H5   137 A       0.1553 ****
4298 N7      1.020000    4.969000   52.348000 NB   137 A      -0.6073 ****
4299 C5      2.311000    4.549000   52.644000 CB   137 A       0.0515 ****
4300 C6      2.836000    3.309000   53.028000 CA   137 A       0.7009 ****
4301 N6      2.091000    2.207000   53.189000 N2   137 A      -0.9019 ****
4302 H61     2.525000    1.339000   53.467000 H    137 A       0.4115 ****
4303 H62     1.094000    2.245000   53.030000 H    137 A       0.4115 ****
4304 N1      4.157000    3.238000   53.243000 NC   137 A      -0.7615 ****
4305 C2      4.892000    4.335000   53.083000 CQ   137 A       0.5875 ****
4306 H2      5.959000    4.299000   53.251000 H5   137 A       0.0473 ****
4307 N3      4.513000    5.548000   52.727000 NC   137 A      -0.6997 ****
4308 C4      3.180000    5.591000   52.517000 CB   137 A       0.3053 ****
4309 C3'     2.500000   10.187000   50.983000 CT   137 A       0.2022 ****
4310 H3'     1.690000   10.720000   50.486000 H1   137 A       0.0615 ****
4311 C2'     2.449000    8.708000   50.598000 CT   137 A       0.0670 ****
4312 H2'     1.656000    8.549000   49.868000 H1   137 A       0.0972 ****
4313 O2'     3.703000    8.319000   50.030000 OH   137 A      -0.6139 ****
4314 HO2'    3.631000    7.389000   49.802000 HO   137 A       0.4186 ****
4315 O3'     3.761000   10.692000   50.567000 OS   137 A      -0.5246 ****
4316 P       3.718000    8.752000   49.332000 P    138 A       1.1662 ****
4317 OP1     3.993000   10.180000   49.056000 O2   138 A      -0.7760 ****
4318 OP2     2.609000    8.118000   48.585000 O2   138 A      -0.7760 ****
4319 O5'     5.112000    8.000000   49.105000 OS   138 A      -0.4989 ****
4320 C5'     6.144000    8.126000   50.101000 CI   138 A       0.0558 ****
4321 H5'     5.779000    7.743000   51.054000 H1   138 A       0.0679 ****
4322 H5''    6.416000    9.176000   50.212000 H1   138 A       0.0679 ****
4323 C4'     7.372000    7.334000   49.681000 CT   138 A       0.1065 ****
4324 H4'     8.244000    7.701000   50.222000 H1   138 A       0.1174 ****
4325 O4'     7.218000    5.953000   50.128000 OS   138 A      -0.3548 ****
4326 C1'     6.914000    5.114000   49.023000 CT   138 A       0.0394 ****
4327 H1'     7.687000    4.353000   48.920000 H2   138 A       0.2007 ****
4328 N9      5.669000    4.298000   49.330000 N*   138 A      -0.0251 ****
4329 C8      4.339000    4.616000   49.248000 C5   138 A       0.2006 ****
4330 H8      4.038000    5.599000   48.916000 H5   138 A       0.1553 ****
4331 N7      3.542000    3.630000   49.538000 NB   138 A      -0.6073 ****
4332 C5      4.402000    2.579000   49.834000 CB   138 A       0.0515 ****
4333 C6      4.175000    1.252000   50.218000 CA   138 A       0.7009 ****
4334 N6      2.952000    0.728000   50.379000 N2   138 A      -0.9019 ****
4335 H61     2.849000   -0.237000   50.657000 H    138 A       0.4115 ****
4336 H62     2.133000    1.298000   50.220000 H    138 A       0.4115 ****
4337 N1      5.248000    0.479000   50.433000 NC   138 A      -0.7615 ****
4338 C2      6.459000    1.005000   50.273000 CQ   138 A       0.5875 ****
4339 H2      7.337000    0.399000   50.441000 H5   138 A       0.0473 ****
4340 N3      6.795000    2.231000   49.917000 NC   138 A      -0.6997 ****
4341 C4      5.697000    2.987000   49.707000 CB   138 A       0.3053 ****
4342 C3'     7.608000    7.222000   48.173000 CT   138 A       0.2022 ****
4343 H3'     7.214000    8.109000   47.676000 H1   138 A       0.0615 ****
4344 C2'     6.765000    6.004000   47.788000 CT   138 A       0.0670 ****
4345 H2'     6.012000    6.300000   47.058000 H1   138 A       0.0972 ****
4346 O2'     7.610000    5.000000   47.220000 OH   138 A      -0.6139 ****
4347 HO2'    7.048000    4.256000   46.992000 HO   138 A       0.4186 ****
4348 O3'     8.941000    6.966000   47.757000 OS   138 A      -0.5246 ****
4349 P       7.626000    5.313000   46.630000 P    139 C       1.1662 ****
4350 OP1     8.591000    6.418000   46.438000 O2   139 C      -0.7760 ****
4351 OP2     6.387000    5.346000   45.822000 O2   139 C      -0.7760 ****
4352 O5'     8.466000    3.970000   46.400000 OS   139 C      -0.4989 ****
4353 C5'     9.373000    3.529000   47.428000 CI   139 C       0.0558 ****
4354 H5'     8.818000    3.349000   48.349000 H1   139 C       0.0679 ****
4355 H5''   10.127000    4.296000   47.602000 H1   139 C       0.0679 ****
4356 C4'    10.058000    2.242000   46.998000 CT   139 C       0.1065 ****
4357 H4'    10.969000    2.103000   47.581000 H1   139 C       0.1174 ****
4358 O4'     9.213000    1.110000   47.367000 OS   139 C      -0.3548 ****
4359 C1'     8.585000    0.575000   46.211000 CT   139 C       0.0066 ****
4360 H1'     8.878000   -0.468000   46.088000 H2   139 C       0.2029 ****
4361 N1      7.120000    0.501000   46.472000 N*   139 C      -0.0484 ****
4362 C6      6.325000    1.594000   46.328000 C4   139 C       0.0053 ****
4363 H6      6.753000    2.537000   46.019000 H4   139 C       0.1958 ****
4364 C5      4.988000    1.524000   46.566000 C4   139 C      -0.5215 ****
4365 H5      4.365000    2.411000   46.446000 HA   139 C       0.1928 ****
4366 C4      4.469000    0.255000   46.972000 CA   139 C       0.8185 ****
4367 N4      3.180000    0.115000   47.220000 N2   139 C      -0.9530 ****
4368 H41     2.852000   -0.797000   47.504000 H    139 C       0.4234 ****
4369 H42     2.555000    0.903000   47.125000 H    139 C       0.4234 ****
4370 N3      5.254000   -0.810000   47.110000 NC   139 C      -0.7584 ****
4371 C2      6.589000   -0.719000   46.867000 C    139 C       0.7538 ****
4372 O2      7.353000   -1.688000   46.985000 O    139 C      -0.6252 ****
4373 C3'    10.281000    2.077000   45.493000 CT   139 C       0.2022 ****
4374 H3'    10.408000    3.057000   45.035000 H1   139 C       0.0615 ****
4375 C2'     8.963000    1.460000   45.021000 CT   139 C       0.0670 ****
4376 H2'     8.495000    2.117000   44.289000 H1   139 C       0.0972 ****
4377 O2'     9.219000    0.186000   44.423000 OH   139 C      -0.6139 ****
4378 HO2'    8.372000   -0.167000   44.141000 HO   139 C       0.4186 ****
4379 O3'    11.326000    1.200000   45.099000 OS   139 C      -0.5246 ****
4380 P      16.130000    7.446000   44.189000 P    140 U       1.1662 ****
4381 OP1    15.496000    8.757000   44.454000 O2   140 U      -0.7760 ****
4382 OP2    17.363000    7.125000   44.942000 O2   140 U      -0.7760 ****
4383 O5'    14.978000    6.361000   44.418000 OS   140 U      -0.4989 ****
4384 C5'    13.951000    6.210000   43.420000 CI   140 U       0.0558 ****
4385 H5'    14.407000    5.928000   42.470000 H1   140 U       0.0679 ****
4386 H5''   13.418000    7.153000   43.300000 H1   140 U       0.0679 ****
4387 C4'    12.969000    5.131000   43.843000 CT   140 U       0.1065 ****
4388 H4'    12.033000    5.256000   43.297000 H1   140 U       0.1174 ****
4389 O4'    13.476000    3.833000   43.405000 OS   140 U      -0.3548 ****
4390 C1'    13.982000    3.109000   44.517000 CT   140 U       0.0674 ****
4391 H1'    13.431000    2.174000   44.624000 H2   140 U       0.1824 ****
4392 N1     15.406000    2.637000   44.216000 N*   140 U       0.0418 ****
4393 C6     16.505000    3.442000   44.358000 CS   140 U      -0.1126 ****
4394 H6     16.388000    4.461000   44.697000 H4   140 U       0.2188 ****
4395 C5     17.741000    2.975000   44.136000 CS   140 U      -0.3635 ****
4396 H5     18.602000    3.633000   44.255000 HA   140 U       0.1811 ****
4397 C4     17.952000    1.607000   43.740000 C    140 U       0.5952 ****
4398 O4     19.046000    1.091000   43.515000 O    140 U      -0.5761 ****
4399 N3     16.791000    0.870000   43.621000 NA   140 U      -0.3549 ****
4400 H3     16.900000   -0.173000   43.323000 H    140 U       0.3154 ****
4401 C2     15.506000    1.322000   43.843000 C    140 U       0.4687 ****
4402 O2     14.538000    0.592000   43.712000 O    140 U      -0.5477 ****
4403 C3'    12.764000    4.971000   45.351000 CT   140 U       0.2022 ****
4404 H3'    12.914000    5.932000   45.842000 H1   140 U       0.0615 ****
4405 C2'    13.891000    4.015000   45.746000 CT   140 U       0.0670 ****
4406 H2'    14.540000    4.499000   46.476000 H1   140 U       0.0972 ****
4407 O2'    13.332000    2.830000   46.319000 OH   140 U      -0.6139 ****
4408 HO2'   14.067000    2.258000   46.553000 HO   140 U       0.4186 ****
4409 O3'    11.541000    4.382000   45.766000 OS   140 U      -0.5246 ****
4410 P      13.017000    3.095000   47.036000 P    141 A       1.1662 ****
4411 OP1    11.772000    3.848000   47.311000 O2   141 A      -0.7760 ****
4412 OP2    14.228000    3.490000   47.789000 O2   141 A      -0.7760 ****
4413 O5'    12.640000    1.556000   47.256000 OS   141 A      -0.4989 ****
4414 C5'    11.858000    0.879000   46.254000 CI   141 A       0.0558 ****
4415 H5'    12.391000    0.897000   45.303000 H1   141 A       0.0679 ****
4416 H5''   10.898000    1.381000   46.141000 H1   141 A       0.0679 ****
4417 C4'    11.622000   -0.565000   46.667000 CT   141 A       0.1065 ****
4418 H4'    10.767000   -0.964000   46.121000 H1   141 A       0.1174 ****
4419 O4'    12.751000   -1.375000   46.220000 OS   141 A      -0.3548 ****
4420 C1'    13.573000   -1.716000   47.327000 CT   141 A       0.0394 ****
4421 H1'    13.619000   -2.800000   47.425000 H2   141 A       0.2007 ****
4422 N9     15.014000   -1.338000   47.027000 N*   141 A      -0.0251 ****
4423 C8     15.670000   -0.138000   47.116000 C5   141 A       0.2006 ****
4424 H8     15.141000    0.743000   47.450000 H5   141 A       0.1553 ****
4425 N7     16.936000   -0.207000   46.831000 NB   141 A      -0.6073 ****
4426 C5     17.141000   -1.548000   46.529000 CB   141 A       0.0515 ****
4427 C6     18.280000   -2.267000   46.147000 CA   141 A       0.7009 ****
4428 N6     19.489000   -1.711000   45.993000 N2   141 A      -0.9019 ****
4429 H61    20.275000   -2.280000   45.715000 H    141 A       0.4115 ****
4430 H62    19.614000   -0.722000   46.156000 H    141 A       0.4115 ****
4431 N1     18.135000   -3.581000   45.926000 NC   141 A      -0.7615 ****
4432 C2     16.932000   -4.128000   46.080000 CQ   141 A       0.5875 ****
4433 H2     16.794000   -5.185000   45.907000 H5   141 A       0.0473 ****
4434 N3     15.796000   -3.557000   46.434000 NC   141 A      -0.6997 ****
4435 C4     15.970000   -2.236000   46.650000 CB   141 A       0.3053 ****
4436 C3'    11.541000   -0.821000   48.173000 CT   141 A       0.2022 ****
4437 H3'    11.145000    0.063000   48.672000 H1   141 A       0.0615 ****
4438 C2'    13.008000   -1.014000   48.563000 CT   141 A       0.0670 ****
4439 H2'    13.291000   -0.260000   49.298000 H1   141 A       0.0972 ****
4440 O2'    13.185000   -2.317000   49.126000 OH   141 A      -0.6139 ****
4441 HO2'   14.113000   -2.399000   49.357000 HO   141 A       0.4186 ****
4442 O3'    10.836000   -1.984000   48.581000 OS   141 A      -0.5246 ****
4443 P      12.768000   -2.248000   49.846000 P    142 A       1.1662 ****
4444 OP1    11.315000   -2.287000   50.121000 O2   142 A      -0.7760 ****
4445 OP2    13.574000   -1.261000   50.599000 O2   142 A      -0.7760 ****
4446 O5'    13.283000   -3.747000   50.066000 OS   142 A      -0.4989 ****
4447 C5'    12.991000   -4.740000   49.064000 CI   142 A       0.0558 ****
4448 H5'    13.429000   -4.437000   48.113000 H1   142 A       0.0679 ****
4449 H5''   11.911000   -4.836000   48.951000 H1   142 A       0.0679 ****
4450 C4'    13.572000   -6.082000   49.477000 CT   142 A       0.1065 ****
4451 H4'    13.068000   -6.880000   48.931000 H1   142 A       0.1174 ****
4452 O4'    14.960000   -6.153000   49.030000 OS   142 A      -0.3548 ****
4453 C1'    15.836000   -5.997000   50.137000 CT   142 A       0.0394 ****
4454 H1'    16.460000   -6.884000   50.235000 H2   142 A       0.2007 ****
4455 N9     16.844000   -4.900000   49.837000 N*   142 A      -0.0251 ****
4456 C8     16.748000   -3.536000   49.926000 C5   142 A       0.2006 ****
4457 H8     15.827000   -3.080000   50.260000 H5   142 A       0.1553 ****
4458 N7     17.851000   -2.910000   49.641000 NB   142 A      -0.6073 ****
4459 C5     18.747000   -3.928000   49.339000 CB   142 A       0.0515 ****
4460 C6     20.094000   -3.918000   48.957000 CA   142 A       0.7009 ****
4461 N6     20.811000   -2.796000   48.803000 N2   142 A      -0.9019 ****
4462 H61    21.780000   -2.850000   48.525000 H    142 A       0.4115 ****
4463 H62    20.382000   -1.896000   48.966000 H    142 A       0.4115 ****
4464 N1     20.682000   -5.102000   48.736000 NC   142 A      -0.7615 ****
4465 C2     19.965000   -6.211000   48.890000 CQ   142 A       0.5875 ****
4466 H2     20.420000   -7.176000   48.717000 H5   142 A       0.0473 ****
4467 N3     18.701000   -6.345000   49.244000 NC   142 A      -0.6997 ****
4468 C4     18.133000   -5.139000   49.460000 CB   142 A       0.3053 ****
4469 C3'    13.642000   -6.342000   50.983000 CT   142 A       0.2022 ****
4470 H3'    12.831000   -5.811000   51.482000 H1   142 A       0.0615 ****
4471 C2'    14.981000   -5.711000   51.373000 CT   142 A       0.0670 ****
4472 H2'    14.812000   -4.924000   52.108000 H1   142 A       0.0972 ****
4473 O2'    15.833000   -6.712000   51.936000 OH   142 A      -0.6139 ****
4474 HO2'   16.659000   -6.280000   52.167000 HO   142 A       0.4186 ****
4475 O3'    13.677000   -7.701000   51.391000 OS   142 A      -0.5246 ****
4476 P      15.446000   -6.879000   52.656000 P    143 A       1.1662 ****
4477 OP1    14.244000   -7.698000   52.931000 O2   143 A      -0.7760 ****
4478 OP2    15.591000   -5.614000   53.409000 O2   143 A      -0.7760 ****
4479 O5'    16.689000   -7.863000   52.876000 OS   143 A      -0.4989 ****
4480 C5'    16.979000   -8.856000   51.874000 CI   143 A       0.0558 ****
4481 H5'    17.185000   -8.364000   50.923000 H1   143 A       0.0679 ****
4482 H5''   16.122000   -9.520000   51.761000 H1   143 A       0.0679 ****
4483 C4'    18.193000   -9.672000   52.287000 CT   143 A       0.1065 ****
4484 H4'    18.200000  -10.615000   51.741000 H1   143 A       0.1174 ****
4485 O4'    19.400000   -8.982000   51.840000 OS   143 A      -0.3548 ****
4486 C1'    20.052000   -8.376000   52.947000 CT   143 A       0.0394 ****
4487 H1'    21.057000   -8.786000   53.045000 H2   143 A       0.2007 ****
4488 N9     20.308000   -6.909000   52.647000 N*   143 A      -0.0251 ****
4489 C8     19.491000   -5.813000   52.736000 C5   143 A       0.2006 ****
4490 H8     18.470000   -5.927000   53.070000 H5   143 A       0.1553 ****
4491 N7     20.080000   -4.690000   52.451000 NB   143 A      -0.6073 ****
4492 C5     21.385000   -5.063000   52.149000 CB   143 A       0.0515 ****
4493 C6     22.513000   -4.327000   51.767000 CA   143 A       0.7009 ****
4494 N6     22.510000   -2.995000   51.613000 N2   143 A      -0.9019 ****
4495 H61    23.355000   -2.517000   51.335000 H    143 A       0.4115 ****
4496 H62    21.663000   -2.470000   51.776000 H    143 A       0.4115 ****
4497 N1     23.647000   -5.005000   51.546000 NC   143 A      -0.7615 ****
4498 C2     23.644000   -6.326000   51.700000 CQ   143 A       0.5875 ****
4499 H2     24.547000   -6.892000   51.527000 H5   143 A       0.0473 ****
4500 N3     22.652000   -7.122000   52.054000 NC   143 A      -0.6997 ****
4501 C4     21.523000   -6.414000   52.270000 CB   143 A       0.3053 ****
4502 C3'    18.393000   -9.852000   53.793000 CT   143 A       0.2022 ****
4503 H3'    17.424000   -9.843000   54.292000 H1   143 A       0.0615 ****
4504 C2'    19.179000   -8.598000   54.183000 CT   143 A       0.0670 ****
4505 H2'    18.611000   -8.027000   54.918000 H1   143 A       0.0972 ****
4506 O2'    20.437000   -8.980000   54.746000 OH   143 A      -0.6139 ****
4507 HO2'   20.898000   -8.170000   54.977000 HO   143 A       0.4186 ****
4508 O3'    19.157000  -10.977000   54.201000 OS   143 A      -0.5246 ****
4509 P      20.158000   -9.135000   55.343000 P    144 G       1.1662 ****
4510 OP1    19.535000  -10.465000   55.529000 O2   144 G      -0.7760 ****
4511 OP2    19.630000   -8.019000   56.158000 O2   144 G      -0.7760 ****
4512 O5'    21.726000   -9.365000   55.570000 OS   144 G      -0.4989 ****
4513 C5'    22.493000  -10.011000   54.537000 CI   144 G       0.0558 ****
4514 H5'    22.433000   -9.426000   53.619000 H1   144 G       0.0679 ****
4515 H5''   22.094000  -11.009000   54.358000 H1   144 G       0.0679 ****
4516 C4'    23.948000  -10.123000   54.963000 CT   144 G       0.1065 ****
4517 H4'    24.440000  -10.898000   54.375000 H1   144 G       0.1174 ****
4518 O4'    24.642000   -8.891000   54.600000 OS   144 G      -0.3548 ****
4519 C1'    24.882000   -8.108000   55.759000 CT   144 G       0.0191 ****
4520 H1'    25.955000   -7.957000   55.881000 H2   144 G       0.2006 ****
4521 N9     24.359000   -6.735000   55.506000 N*   144 G       0.0492 ****
4522 C8     23.066000   -6.263000   55.602000 CP   144 G       0.1374 ****
4523 H8     22.269000   -6.928000   55.899000 H5   144 G       0.1640 ****
4524 N7     22.940000   -4.993000   55.307000 NB   144 G      -0.5709 ****
4525 C5     24.233000   -4.593000   54.992000 CB   144 G       0.1744 ****
4526 C6     24.733000   -3.325000   54.592000 C    144 G       0.4770 ****
4527 O6     24.120000   -2.271000   54.431000 O    144 G      -0.5597 ****
4528 N1     26.115000   -3.367000   54.373000 NA   144 G      -0.4787 ****
4529 H1     26.560000   -2.519000   54.086000 H    144 G       0.3424 ****
4530 C2     26.911000   -4.484000   54.522000 CA   144 G       0.7657 ****
4531 N2     28.215000   -4.316000   54.263000 N2   144 G      -0.9672 ****
4532 H21    28.670000   -3.466000   53.961000 H    144 G       0.4364 ****
4533 H22    28.803000   -5.131000   54.361000 H    144 G       0.4364 ****
4534 N3     26.442000   -5.671000   54.898000 NC   144 G      -0.6323 ****
4535 C4     25.099000   -5.647000   55.115000 CB   144 G       0.1222 ****
4536 C3'    24.191000  -10.268000   56.466000 CT   144 G       0.2022 ****
4537 H3'    23.346000  -10.782000   56.924000 H1   144 G       0.0615 ****
4538 C2'    24.226000   -8.816000   56.946000 CT   144 G       0.0670 ****
4539 H2'    23.437000   -8.656000   57.681000 H1   144 G       0.0972 ****
4540 O2'    25.496000   -8.541000   57.543000 OH   144 G      -0.6139 ****
4541 HO2'   25.479000   -7.625000   57.830000 HO   144 G       0.4186 ****
4542 O3'    25.416000  -10.874000   56.855000 OS   144 G      -0.5246 ****
4543 P      25.527000   -8.823000   58.276000 P    145 A       1.1662 ****
4544 OP1    25.770000  -10.257000   58.551000 O2   145 A      -0.7760 ****
4545 OP2    24.436000   -8.164000   59.029000 O2   145 A      -0.7760 ****
4546 O5'    26.938000   -8.102000   58.496000 OS   145 A      -0.4989 ****
4547 C5'    27.962000   -8.252000   57.494000 CI   145 A       0.0558 ****
4548 H5'    27.600000   -7.860000   56.543000 H1   145 A       0.0679 ****
4549 H5''   28.209000   -9.307000   57.381000 H1   145 A       0.0679 ****
4550 C4'    29.209000   -7.487000   57.907000 CT   145 A       0.1065 ****
4551 H4'    30.070000   -7.874000   57.361000 H1   145 A       0.1174 ****
4552 O4'    29.084000   -6.103000   57.460000 OS   145 A      -0.3548 ****
4553 C1'    28.805000   -5.258000   58.567000 CT   145 A       0.0394 ****
4554 H1'    29.596000   -4.514000   58.665000 H2   145 A       0.2007 ****
4555 N9     27.577000   -4.414000   58.267000 N*   145 A      -0.0251 ****
4556 C8     26.241000   -4.702000   58.356000 C5   145 A       0.2006 ****
4557 H8     25.920000   -5.677000   58.690000 H5   145 A       0.1553 ****
4558 N7     25.465000   -3.698000   58.071000 NB   145 A      -0.6073 ****
4559 C5     26.347000   -2.667000   57.769000 CB   145 A       0.0515 ****
4560 C6     26.147000   -1.335000   57.387000 CA   145 A       0.7009 ****
4561 N6     24.936000   -0.783000   57.233000 N2   145 A      -0.9019 ****
4562 H61    24.853000    0.184000   56.955000 H    145 A       0.4115 ****
4563 H62    24.106000   -1.335000   57.396000 H    145 A       0.4115 ****
4564 N1     27.236000   -0.586000   57.166000 NC   145 A      -0.7615 ****
4565 C2     28.436000   -1.139000   57.320000 CQ   145 A       0.5875 ****
4566 H2     29.327000   -0.553000   57.147000 H5   145 A       0.0473 ****
4567 N3     28.747000   -2.372000   57.674000 NC   145 A      -0.6997 ****
4568 C4     27.633000   -3.104000   57.890000 CB   145 A       0.3053 ****
4569 C3'    29.456000   -7.381000   59.413000 CT   145 A       0.2022 ****
4570 H3'    29.045000   -8.258000   59.912000 H1   145 A       0.0615 ****
4571 C2'    28.643000   -6.145000   59.803000 CT   145 A       0.0670 ****
4572 H2'    27.888000   -6.423000   60.538000 H1   145 A       0.0972 ****
4573 O2'    29.514000   -5.159000   60.366000 OH   145 A      -0.6139 ****
4574 HO2'   28.970000   -4.403000   60.597000 HO   145 A       0.4186 ****
4575 O3'    30.797000   -7.155000   59.821000 OS   145 A      -0.5246 ****
4576 P      29.734000   -5.519000   61.086000 P    146 A       1.1662 ****
4577 OP1    30.714000   -6.594000   61.361000 O2   146 A      -0.7760 ****
4578 OP2    28.461000   -5.554000   61.839000 O2   146 A      -0.7760 ****
4579 O5'    30.532000   -4.150000   61.306000 OS   146 A      -0.4989 ****
4580 C5'    31.475000   -3.723000   60.304000 CI   146 A       0.0558 ****
4581 H5'    30.959000   -3.589000   59.353000 H1   146 A       0.0679 ****
4582 H5''   32.253000   -4.478000   60.191000 H1   146 A       0.0679 ****
4583 C4'    32.112000   -2.406000   60.717000 CT   146 A       0.1065 ****
4584 H4'    33.045000   -2.266000   60.171000 H1   146 A       0.1174 ****
4585 O4'    31.258000   -1.309000   60.270000 OS   146 A      -0.3548 ****
4586 C1'    30.567000   -0.748000   61.377000 CT   146 A       0.0394 ****
4587 H1'    30.831000    0.305000   61.475000 H2   146 A       0.2007 ****
4588 N9     29.078000   -0.701000   61.077000 N*   146 A      -0.0251 ****
4589 C8     28.109000   -1.665000   61.166000 C5   146 A       0.2006 ****
4590 H8     28.365000   -2.660000   61.500000 H5   146 A       0.1553 ****
4591 N7     26.914000   -1.240000   60.881000 NB   146 A      -0.6073 ****
4592 C5     27.099000    0.104000   60.579000 CB   146 A       0.0515 ****
4593 C6     26.211000    1.117000   60.197000 CA   146 A       0.7009 ****
4594 N6     24.894000    0.927000   60.043000 N2   146 A      -0.9019 ****
4595 H61    24.301000    1.696000   59.765000 H    146 A       0.4115 ****
4596 H62    24.493000    0.014000   60.206000 H    146 A       0.4115 ****
4597 N1     26.723000    2.336000   59.976000 NC   146 A      -0.7615 ****
4598 C2     28.031000    2.519000   60.130000 CQ   146 A       0.5875 ****
4599 H2     28.465000    3.493000   59.957000 H5   146 A       0.0473 ****
4600 N3     28.959000    1.649000   60.484000 NC   146 A      -0.6997 ****
4601 C4     28.417000    0.431000   60.700000 CB   146 A       0.3053 ****
4602 C3'    32.262000   -2.183000   62.223000 CT   146 A       0.2022 ****
4603 H3'    32.390000   -3.144000   62.722000 H1   146 A       0.0615 ****
4604 C2'    30.910000   -1.582000   62.613000 CT   146 A       0.0670 ****
4605 H2'    30.424000   -2.224000   63.348000 H1   146 A       0.0972 ****
4606 O2'    31.110000   -0.282000   63.176000 OH   146 A      -0.6139 ****
4607 HO2'   30.244000    0.060000   63.407000 HO   146 A       0.4186 ****
4608 O3'    33.268000   -1.268000   62.631000 OS   146 A      -0.5246 ****
4609 P      31.304000   -0.536000   63.773000 P    147 G       1.1662 ****
4610 OP1    32.707000   -0.966000   63.959000 O2   147 G      -0.7760 ****
4611 OP2    30.273000   -1.216000   64.588000 O2   147 G      -0.7760 ****
4612 O5'    31.310000    1.048000   64.000000 OS   147 G      -0.4989 ****
4613 C5'    31.842000    1.899000   62.967000 CI   147 G       0.0558 ****
4614 H5'    31.271000    1.757000   62.049000 H1   147 G       0.0679 ****
4615 H5''   32.886000    1.644000   62.788000 H1   147 G       0.0679 ****
4616 C4'    31.748000    3.355000   63.393000 CT   147 G       0.1065 ****
4617 H4'    32.445000    3.952000   62.805000 H1   147 G       0.1174 ****
4618 O4'    30.430000    3.869000   63.030000 OS   147 G      -0.3548 ****
4619 C1'    29.621000    3.996000   64.189000 CT   147 G       0.0191 ****
4620 H1'    29.320000    5.036000   64.311000 H2   147 G       0.2006 ****
4621 N9     28.336000    3.285000   63.936000 N*   147 G       0.0492 ****
4622 C8     28.050000    1.938000   64.032000 CP   147 G       0.1374 ****
4623 H8     28.821000    1.243000   64.329000 H5   147 G       0.1640 ****
4624 N7     26.811000    1.634000   63.737000 NB   147 G      -0.5709 ****
4625 C5     26.232000    2.858000   63.422000 CB   147 G       0.1744 ****
4626 C6     24.907000    3.174000   63.022000 C    147 G       0.4770 ****
4627 O6     23.950000    2.418000   62.861000 O    147 G      -0.5597 ****
4628 N1     24.754000    4.548000   62.803000 NA   147 G      -0.4787 ****
4629 H1     23.852000    4.870000   62.516000 H    147 G       0.3424 ****
4630 C2     25.748000    5.494000   62.952000 CA   147 G       0.7657 ****
4631 N2     25.397000    6.761000   62.693000 N2   147 G      -0.9672 ****
4632 H21    24.492000    7.091000   62.391000 H    147 G       0.4364 ****
4633 H22    26.121000    7.458000   62.791000 H    147 G       0.4364 ****
4634 N3     26.988000    5.196000   63.328000 NC   147 G      -0.6323 ****
4635 C4     27.154000    3.864000   63.545000 CB   147 G       0.1222 ****
4636 C3'    31.857000    3.616000   64.896000 CT   147 G       0.2022 ****
4637 H3'    32.485000    2.852000   65.354000 H1   147 G       0.0615 ****
4638 C2'    30.414000    3.446000   65.376000 CT   147 G       0.0670 ****
4639 H2'    30.367000    2.643000   66.111000 H1   147 G       0.0972 ****
4640 O2'    29.963000    4.664000   65.973000 OH   147 G      -0.6139 ****
4641 HO2'   29.058000    4.518000   66.260000 HO   147 G       0.4186 ****
4642 O3'    32.284000    4.914000   65.285000 OS   147 G      -0.5246 ****
4643 P      30.103000    4.555000   66.578000 P    148 C       1.1662 ****
4644 OP1    31.518000    4.942000   66.770000 O2   148 C      -0.7760 ****
4645 OP2    29.594000    3.424000   67.386000 O2   148 C      -0.7760 ****
4646 O5'    29.260000    5.895000   66.809000 OS   148 C      -0.4989 ****
4647 C5'    29.256000    6.904000   65.782000 CI   148 C       0.0558 ****
4648 H5'    28.853000    6.483000   64.861000 H1   148 C       0.0679 ****
4649 H5''   30.275000    7.249000   65.608000 H1   148 C       0.0679 ****
4650 C4'    28.396000    8.081000   66.212000 CT   148 C       0.1065 ****
4651 H4'    28.667000    8.962000   65.630000 H1   148 C       0.1174 ****
4652 O4'    27.009000    7.812000   65.843000 OS   148 C      -0.3548 ****
4653 C1'    26.254000    7.479000   66.999000 CT   148 C       0.0066 ****
4654 H1'    25.443000    8.197000   67.123000 H2   148 C       0.2029 ****
4655 N1     25.550000    6.193000   66.738000 N*   148 C      -0.0484 ****
4656 C6     26.188000    5.000000   66.881000 C4   148 C       0.0053 ****
4657 H6     27.223000    4.976000   67.189000 H4   148 C       0.1958 ****
4658 C5     25.543000    3.827000   66.642000 C4   148 C      -0.5215 ****
4659 H5     26.071000    2.881000   66.762000 HA   148 C       0.1928 ****
4660 C4     24.175000    3.912000   66.236000 CA   148 C       0.8185 ****
4661 N4     23.488000    2.813000   65.988000 N2   148 C      -0.9530 ****
4662 H41    22.525000    2.915000   65.704000 H    148 C       0.4234 ****
4663 H42    23.926000    1.907000   66.082000 H    148 C       0.4234 ****
4664 N3     23.558000    5.083000   66.099000 NC   148 C      -0.7584 ****
4665 C2     24.221000    6.245000   66.343000 C    148 C       0.7538 ****
4666 O2     23.681000    7.355000   66.226000 O    148 C      -0.6252 ****
4667 C3'    28.344000    8.352000   67.717000 CT   148 C       0.2022 ****
4668 H3'    29.282000    8.040000   68.176000 H1   148 C       0.0615 ****
4669 C2'    27.215000    7.434000   68.189000 CT   148 C       0.0670 ****
4670 H2'    27.604000    6.726000   68.921000 H1   148 C       0.0972 ****
4671 O2'    26.180000    8.218000   68.787000 OH   148 C      -0.6139 ****
4672 HO2'   25.494000    7.609000   69.069000 HO   148 C       0.4186 ****
4673 O3'    28.009000    9.675000   68.112000 OS   148 C      -0.5246 ****
4674 P      26.360000    8.236000   69.393000 P    149 G       1.1662 ****
4675 OP1    27.336000    9.334000   69.579000 O2   149 G      -0.7760 ****
4676 OP2    26.550000    7.015000   70.208000 O2   149 G      -0.7760 ****
4677 O5'    24.923000    8.901000   69.620000 OS   149 G      -0.4989 ****
4678 C5'    24.370000    9.739000   68.587000 CI   149 G       0.0558 ****
4679 H5'    24.262000    9.161000   67.669000 H1   149 G       0.0679 ****
4680 H5''   25.037000   10.583000   68.408000 H1   149 G       0.0679 ****
4681 C4'    23.007000   10.259000   69.013000 CT   149 G       0.1065 ****
4682 H4'    22.755000   11.142000   68.425000 H1   149 G       0.1174 ****
4683 O4'    21.992000    9.276000   68.650000 OS   149 G      -0.3548 ****
4684 C1'    21.539000    8.592000   69.809000 CT   149 G       0.0191 ****
4685 H1'    20.468000    8.752000   69.931000 H2   149 G       0.2006 ****
4686 N9     21.651000    7.128000   69.556000 N*   149 G       0.0492 ****
4687 C8     22.756000    6.308000   69.652000 CP   149 G       0.1374 ****
4688 H8     23.710000    6.719000   69.949000 H5   149 G       0.1640 ****
4689 N7     22.517000    5.054000   69.357000 NB   149 G      -0.5709 ****
4690 C5     21.163000    5.038000   69.042000 CB   149 G       0.1744 ****
4691 C6     20.324000    3.964000   68.642000 C    149 G       0.4770 ****
4692 O6     20.613000    2.780000   68.481000 O    149 G      -0.5597 ****
4693 N1     19.011000    4.397000   68.423000 NA   149 G      -0.4787 ****
4694 H1     18.343000    3.711000   68.136000 H    149 G       0.3424 ****
4695 C2     18.565000    5.695000   68.572000 CA   149 G       0.7657 ****
4696 N2     17.267000    5.903000   68.313000 N2   149 G      -0.9672 ****
4697 H21    16.589000    5.218000   68.011000 H    149 G       0.4364 ****
4698 H22    16.934000    6.852000   68.411000 H    149 G       0.4364 ****
4699 N3     19.352000    6.699000   68.948000 NC   149 G      -0.6323 ****
4700 C4     20.632000    6.295000   69.165000 CB   149 G       0.1222 ****
4701 C3'    22.815000   10.468000   70.516000 CT   149 G       0.2022 ****
4702 H3'    23.772000   10.720000   70.974000 H1   149 G       0.0615 ****
4703 C2'    22.369000    9.085000   70.996000 CT   149 G       0.0670 ****
4704 H2'    23.080000    8.708000   71.731000 H1   149 G       0.0972 ****
4705 O2'    21.074000    9.182000   71.593000 OH   149 G      -0.6139 ****
4706 HO2'   20.830000    8.299000   71.880000 HO   149 G       0.4186 ****
4707 O3'    21.813000   11.396000   70.905000 OS   149 G      -0.5246 ****
4708 P      21.220000    9.286000   72.203000 P    150 G       1.1662 ****
4709 OP1    21.448000   10.737000   72.389000 O2   150 G      -0.7760 ****
4710 OP2    22.039000    8.361000   73.018000 O2   150 G      -0.7760 ****
4711 O5'    19.651000    9.069000   72.430000 OS   150 G      -0.4989 ****
4712 C5'    18.734000    9.476000   71.397000 CI   150 G       0.0558 ****
4713 H5'    18.955000    8.931000   70.479000 H1   150 G       0.0679 ****
4714 H5''   18.838000   10.546000   71.218000 H1   150 G       0.0679 ****
4715 C4'    17.305000    9.178000   71.823000 CT   150 G       0.1065 ****
4716 H4'    16.616000    9.784000   71.235000 H1   150 G       0.1174 ****
4717 O4'    16.982000    7.801000   71.460000 OS   150 G      -0.3548 ****
4718 C1'    16.971000    6.982000   72.619000 CT   150 G       0.0191 ****
4719 H1'    15.983000    6.537000   72.741000 H2   150 G       0.2006 ****
4720 N9     17.855000    5.810000   72.366000 N*   150 G       0.0492 ****
4721 C8     19.229000    5.717000   72.462000 CP   150 G       0.1374 ****
4722 H8     19.809000    6.578000   72.759000 H5   150 G       0.1640 ****
4723 N7     19.705000    4.533000   72.167000 NB   150 G      -0.5709 ****
4724 C5     18.574000    3.787000   71.852000 CB   150 G       0.1744 ****
4725 C6     18.448000    2.431000   71.452000 C    150 G       0.4770 ****
4726 O6     19.331000    1.590000   71.291000 O    150 G      -0.5597 ****
4727 N1     17.109000    2.085000   71.233000 NA   150 G      -0.4787 ****
4728 H1     16.918000    1.147000   70.946000 H    150 G       0.3424 ****
4729 C2     16.033000    2.936000   71.382000 CA   150 G       0.7657 ****
4730 N2     14.828000    2.411000   71.123000 N2   150 G      -0.9672 ****
4731 H21    14.628000    1.468000   70.821000 H    150 G       0.4364 ****
4732 H22    14.035000    3.029000   71.221000 H    150 G       0.4364 ****
4733 N3     16.153000    4.206000   71.758000 NC   150 G      -0.6323 ****
4734 C4     17.448000    4.558000   71.975000 CB   150 G       0.1222 ****
4735 C3'    17.031000    9.249000   73.326000 CT   150 G       0.2022 ****
4736 H3'    17.700000    9.978000   73.784000 H1   150 G       0.0615 ****
4737 C2'    17.403000    7.845000   73.806000 CT   150 G       0.0670 ****
4738 H2'    18.205000    7.912000   74.541000 H1   150 G       0.0972 ****
4739 O2'    16.260000    7.226000   74.403000 OH   150 G      -0.6139 ****
4740 HO2'   16.532000    6.351000   74.690000 HO   150 G       0.4186 ****
4741 O3'    15.686000    9.489000   73.715000 OS   150 G      -0.5246 ****
4742 P      16.349000    7.380000   75.008000 P    151 C       1.1662 ****
4743 OP1    15.766000    8.727000   75.200000 O2   151 C      -0.7760 ****
4744 OP2    17.540000    7.036000   75.816000 O2   151 C      -0.7760 ****
4745 O5'    15.141000    6.357000   75.239000 OS   151 C      -0.4989 ****
4746 C5'    14.143000    6.211000   74.212000 CI   151 C       0.0558 ****
4747 H5'    14.616000    5.871000   73.291000 H1   151 C       0.0679 ****
4748 H5''   13.657000    7.171000   74.038000 H1   151 C       0.0679 ****
4749 C4'    13.099000    5.194000   74.642000 CT   151 C       0.1065 ****
4750 H4'    12.188000    5.338000   74.060000 H1   151 C       0.1174 ****
4751 O4'    13.560000    3.859000   74.273000 OS   151 C      -0.3548 ****
4752 C1'    13.996000    3.158000   75.429000 CT   151 C       0.0066 ****
4753 H1'    13.400000    2.254000   75.553000 H2   151 C       0.2029 ****
4754 N1     15.369000    2.642000   75.168000 N*   151 C      -0.0484 ****
4755 C6     16.459000    3.442000   75.311000 C4   151 C       0.0053 ****
4756 H6     16.338000    4.470000   75.619000 H4   151 C       0.1958 ****
4757 C5     17.712000    2.969000   75.072000 C4   151 C      -0.5215 ****
4758 H5     18.574000    3.624000   75.192000 HA   151 C       0.1928 ****
4759 C4     17.820000    1.602000   74.666000 CA   151 C       0.8185 ****
4760 N4     19.006000    1.077000   74.418000 N2   151 C      -0.9530 ****
4761 H41    19.040000    0.109000   74.134000 H    151 C       0.4234 ****
4762 H42    19.841000    1.638000   74.512000 H    151 C       0.4234 ****
4763 N3     16.749000    0.826000   74.529000 NC   151 C      -0.7584 ****
4764 C2     15.504000    1.319000   74.773000 C    151 C       0.7538 ****
4765 O2     14.482000    0.627000   74.656000 O    151 C      -0.6252 ****
4766 C3'    12.837000    5.104000   76.147000 CT   151 C       0.2022 ****
4767 H3'    13.014000    6.077000   76.606000 H1   151 C       0.0615 ****
4768 C2'    13.906000    4.116000   76.619000 CT   151 C       0.0670 ****
4769 H2'    14.552000    4.600000   77.351000 H1   151 C       0.0972 ****
4770 O2'    13.275000    2.981000   77.217000 OH   151 C      -0.6139 ****
4771 HO2'   13.975000    2.387000   77.499000 HO   151 C       0.4186 ****
4772 O3'    11.575000    4.586000   76.542000 OS   151 C      -0.5246 ****
4773 P      13.033000    3.142000   77.946000 P    152 A       1.1662 ****
4774 OP1    11.793000    3.901000   78.221000 O2   152 A      -0.7760 ****
4775 OP2    14.246000    3.531000   78.699000 O2   152 A      -0.7760 ****
4776 O5'    12.649000    1.605000   78.166000 OS   152 A      -0.4989 ****
4777 C5'    11.863000    0.932000   77.164000 CI   152 A       0.0558 ****
4778 H5'    12.396000    0.947000   76.213000 H1   152 A       0.0679 ****
4779 H5''   10.905000    1.439000   77.051000 H1   152 A       0.0679 ****
4780 C4'    11.619000   -0.510000   77.577000 CT   152 A       0.1065 ****
4781 H4'    10.762000   -0.905000   77.031000 H1   152 A       0.1174 ****
4782 O4'    12.744000   -1.326000   77.130000 OS   152 A      -0.3548 ****
4783 C1'    13.564000   -1.672000   78.237000 CT   152 A       0.0394 ****
4784 H1'    13.605000   -2.757000   78.335000 H2   152 A       0.2007 ****
4785 N9     15.007000   -1.301000   77.937000 N*   152 A      -0.0251 ****
4786 C8     15.669000   -0.105000   78.026000 C5   152 A       0.2006 ****
4787 H8     15.145000    0.778000   78.360000 H5   152 A       0.1553 ****
4788 N7     16.935000   -0.180000   77.741000 NB   152 A      -0.6073 ****
4789 C5     17.133000   -1.523000   77.439000 CB   152 A       0.0515 ****
4790 C6     18.268000   -2.248000   77.057000 CA   152 A       0.7009 ****
4791 N6     19.480000   -1.697000   76.903000 N2   152 A      -0.9019 ****
4792 H61    20.263000   -2.271000   76.625000 H    152 A       0.4115 ****
4793 H62    19.610000   -0.709000   77.066000 H    152 A       0.4115 ****
4794 N1     18.116000   -3.561000   76.836000 NC   152 A      -0.7615 ****
4795 C2     16.911000   -4.101000   76.990000 CQ   152 A       0.5875 ****
4796 H2     16.767000   -5.158000   76.817000 H5   152 A       0.0473 ****
4797 N3     15.777000   -3.525000   77.344000 NC   152 A      -0.6997 ****
4798 C4     15.958000   -2.204000   77.560000 CB   152 A       0.3053 ****
4799 C3'    11.537000   -0.766000   79.083000 CT   152 A       0.2022 ****
4800 H3'    11.146000    0.120000   79.582000 H1   152 A       0.0615 ****
4801 C2'    13.002000   -0.967000   79.473000 CT   152 A       0.0670 ****
4802 H2'    13.290000   -0.214000   80.208000 H1   152 A       0.0972 ****
4803 O2'    13.173000   -2.271000   80.036000 OH   152 A      -0.6139 ****
4804 HO2'   14.100000   -2.358000   80.267000 HO   152 A       0.4186 ****
4805 O3'    10.826000   -1.926000   79.491000 OS   152 A      -0.5246 ****
4806 P      12.916000   -2.081000   80.633000 P    153 G       1.1662 ****
4807 OP1    11.448000   -2.060000   80.819000 O2   153 G      -0.7760 ****
4808 OP2    13.716000   -1.140000   81.448000 O2   153 G      -0.7760 ****
4809 O5'    13.352000   -3.604000   80.860000 OS   153 G      -0.4989 ****
4810 C5'    13.079000   -4.569000   79.827000 CI   153 G       0.0558 ****
4811 H5'    13.587000   -4.273000   78.909000 H1   153 G       0.0679 ****
4812 H5''   12.005000   -4.616000   79.648000 H1   153 G       0.0679 ****
4813 C4'    13.575000   -5.941000   80.253000 CT   153 G       0.1065 ****
4814 H4'    13.072000   -6.709000   79.665000 H1   153 G       0.1174 ****
4815 O4'    14.984000   -6.067000   79.890000 OS   153 G      -0.3548 ****
4816 C1'    15.797000   -5.963000   81.049000 CT   153 G       0.0191 ****
4817 H1'    16.376000   -6.878000   81.171000 H2   153 G       0.2006 ****
4818 N9     16.832000   -4.922000   80.796000 N*   153 G       0.0492 ****
4819 C8     16.731000   -3.549000   80.892000 CP   153 G       0.1374 ****
4820 H8     15.796000   -3.096000   81.189000 H5   153 G       0.1640 ****
4821 N7     17.836000   -2.911000   80.597000 NB   153 G      -0.5709 ****
4822 C5     18.733000   -3.925000   80.282000 CB   153 G       0.1744 ****
4823 C6     20.094000   -3.859000   79.882000 C    153 G       0.4770 ****
4824 O6     20.802000   -2.866000   79.721000 O    153 G      -0.5597 ****
4825 N1     20.624000   -5.136000   79.663000 NA   153 G      -0.4787 ****
4826 H1     21.581000   -5.193000   79.376000 H    153 G       0.3424 ****
4827 C2     19.934000   -6.321000   79.812000 CA   153 G       0.7657 ****
4828 N2     20.624000   -7.440000   79.553000 N2   153 G      -0.9672 ****
4829 H21    21.586000   -7.505000   79.251000 H    153 G       0.4364 ****
4830 H22    20.123000   -8.312000   79.651000 H    153 G       0.4364 ****
4831 N3     18.660000   -6.382000   80.188000 NC   153 G      -0.6323 ****
4832 C4     18.129000   -5.148000   80.405000 CB   153 G       0.1222 ****
4833 C3'    13.543000   -6.223000   81.756000 CT   153 G       0.2022 ****
4834 H3'    12.727000   -5.663000   82.214000 H1   153 G       0.0615 ****
4835 C2'    14.881000   -5.657000   82.236000 CT   153 G       0.0670 ****
4836 H2'    14.702000   -4.872000   82.971000 H1   153 G       0.0972 ****
4837 O2'    15.655000   -6.701000   82.833000 OH   153 G      -0.6139 ****
4838 HO2'   16.482000   -6.308000   83.120000 HO   153 G       0.4186 ****
4839 O3'    13.495000   -7.588000   82.145000 OS   153 G      -0.5246 ****
4840 P      15.410000   -6.845000   83.566000 P    154 A       1.1662 ****
4841 OP1    14.204000   -7.657000   83.841000 O2   154 A      -0.7760 ****
4842 OP2    15.562000   -5.580000   84.319000 O2   154 A      -0.7760 ****
4843 O5'    16.648000   -7.835000   83.786000 OS   154 A      -0.4989 ****
4844 C5'    16.933000   -8.829000   82.784000 CI   154 A       0.0558 ****
4845 H5'    17.141000   -8.339000   81.833000 H1   154 A       0.0679 ****
4846 H5''   16.073000   -9.489000   82.671000 H1   154 A       0.0679 ****
4847 C4'    18.143000   -9.652000   83.197000 CT   154 A       0.1065 ****
4848 H4'    18.145000  -10.595000   82.651000 H1   154 A       0.1174 ****
4849 O4'    19.353000   -8.968000   82.750000 OS   154 A      -0.3548 ****
4850 C1'    20.008000   -8.366000   83.857000 CT   154 A       0.0394 ****
4851 H1'    21.011000   -8.781000   83.955000 H2   154 A       0.2007 ****
4852 N9     20.272000   -6.900000   83.557000 N*   154 A      -0.0251 ****
4853 C8     19.460000   -5.800000   83.646000 C5   154 A       0.2006 ****
4854 H8     18.439000   -5.909000   83.980000 H5   154 A       0.1553 ****
4855 N7     20.056000   -4.680000   83.361000 NB   154 A      -0.6073 ****
4856 C5     21.359000   -5.059000   83.059000 CB   154 A       0.0515 ****
4857 C6     22.490000   -4.329000   82.677000 CA   154 A       0.7009 ****
4858 N6     22.494000   -2.998000   82.523000 N2   154 A      -0.9019 ****
4859 H61    23.342000   -2.524000   82.245000 H    154 A       0.4115 ****
4860 H62    21.650000   -2.468000   82.686000 H    154 A       0.4115 ****
4861 N1     23.621000   -5.014000   82.456000 NC   154 A      -0.7615 ****
4862 C2     23.610000   -6.335000   82.610000 CQ   154 A       0.5875 ****
4863 H2     24.511000   -6.905000   82.437000 H5   154 A       0.0473 ****
4864 N3     22.614000   -7.125000   82.964000 NC   154 A      -0.6997 ****
4865 C4     21.489000   -6.411000   83.180000 CB   154 A       0.3053 ****
4866 C3'    18.341000   -9.833000   84.703000 CT   154 A       0.2022 ****
4867 H3'    17.372000   -9.819000   85.202000 H1   154 A       0.0615 ****
4868 C2'    19.134000   -8.583000   85.093000 CT   154 A       0.0670 ****
4869 H2'    18.569000   -8.009000   85.828000 H1   154 A       0.0972 ****
4870 O2'    20.390000   -8.971000   85.656000 OH   154 A      -0.6139 ****
4871 HO2'   20.855000   -8.164000   85.887000 HO   154 A       0.4186 ****
4872 O3'    19.099000  -10.962000   85.111000 OS   154 A      -0.5246 ****
4873 P      20.153000   -9.320000   86.376000 P    155 A       1.1662 ****
4874 OP1    19.576000  -10.655000   86.651000 O2   155 A      -0.7760 ****
4875 OP2    19.597000   -8.174000   87.129000 O2   155 A      -0.7760 ****
4876 O5'    21.729000   -9.484000   86.596000 OS   155 A      -0.4989 ****
4877 C5'    22.506000  -10.167000   85.594000 CI   155 A       0.0558 ****
4878 H5'    22.416000   -9.642000   84.643000 H1   155 A       0.0679 ****
4879 H5''   22.138000  -11.187000   85.481000 H1   155 A       0.0679 ****
4880 C4'    23.968000  -10.206000   86.007000 CT   155 A       0.1065 ****
4881 H4'    24.480000  -10.999000   85.461000 H1   155 A       0.1174 ****
4882 O4'    24.617000   -8.977000   85.560000 OS   155 A      -0.3548 ****
4883 C1'    24.844000   -8.116000   86.667000 CT   155 A       0.0394 ****
4884 H1'    25.912000   -7.923000   86.765000 H2   155 A       0.2007 ****
4885 N9     24.274000   -6.739000   86.367000 N*   155 A      -0.0251 ****
4886 C8     22.996000   -6.253000   86.456000 C5   155 A       0.2006 ****
4887 H8     22.195000   -6.896000   86.790000 H5   155 A       0.1553 ****
4888 N7     22.892000   -4.989000   86.171000 NB   155 A      -0.6073 ****
4889 C5     24.193000   -4.604000   85.869000 CB   155 A       0.0515 ****
4890 C6     24.751000   -3.378000   85.487000 CA   155 A       0.7009 ****
4891 N6     24.036000   -2.256000   85.333000 N2   155 A      -0.9019 ****
4892 H61    24.493000   -1.399000   85.055000 H    155 A       0.4115 ****
4893 H62    23.039000   -2.266000   85.496000 H    155 A       0.4115 ****
4894 N1     26.072000   -3.343000   85.266000 NC   155 A      -0.7615 ****
4895 C2     26.777000   -4.461000   85.420000 CQ   155 A       0.5875 ****
4896 H2     27.844000   -4.455000   85.247000 H5   155 A       0.0473 ****
4897 N3     26.366000   -5.664000   85.774000 NC   155 A      -0.6997 ****
4898 C4     25.034000   -5.671000   85.990000 CB   155 A       0.3053 ****
4899 C3'    24.233000  -10.251000   87.513000 CT   155 A       0.2022 ****
4900 H3'    23.410000  -10.763000   88.012000 H1   155 A       0.0615 ****
4901 C2'    24.225000   -8.772000   87.903000 CT   155 A       0.0670 ****
4902 H2'    23.440000   -8.593000   88.638000 H1   155 A       0.0972 ****
4903 O2'    25.492000   -8.419000   88.466000 OH   155 A      -0.6139 ****
4904 HO2'   25.447000   -7.489000   88.697000 HO   155 A       0.4186 ****
4905 O3'    25.481000  -10.792000   87.921000 OS   155 A      -0.5246 ****
4906 P      25.480000   -8.841000   89.186000 P    156 A       1.1662 ****
4907 OP1    25.716000  -10.276000   89.461000 O2   156 A      -0.7760 ****
4908 OP2    24.393000   -8.177000   89.939000 O2   156 A      -0.7760 ****
4909 O5'    26.896000   -8.128000   89.406000 OS   156 A      -0.4989 ****
4910 C5'    27.918000   -8.283000   88.404000 CI   156 A       0.0558 ****
4911 H5'    27.559000   -7.889000   87.453000 H1   156 A       0.0679 ****
4912 H5''   28.160000   -9.339000   88.291000 H1   156 A       0.0679 ****
4913 C4'    29.170000   -7.525000   88.817000 CT   156 A       0.1065 ****
4914 H4'    30.028000   -7.916000   88.271000 H1   156 A       0.1174 ****
4915 O4'    29.052000   -6.140000   88.370000 OS   156 A      -0.3548 ****
4916 C1'    28.778000   -5.294000   89.477000 CT   156 A       0.0394 ****
4917 H1'    29.572000   -4.554000   89.575000 H2   156 A       0.2007 ****
4918 N9     27.554000   -4.443000   89.177000 N*   156 A      -0.0251 ****
4919 C8     26.216000   -4.724000   89.266000 C5   156 A       0.2006 ****
4920 H8     25.890000   -5.698000   89.600000 H5   156 A       0.1553 ****
4921 N7     25.446000   -3.716000   88.981000 NB   156 A      -0.6073 ****
4922 C5     26.333000   -2.689000   88.679000 CB   156 A       0.0515 ****
4923 C6     26.140000   -1.357000   88.297000 CA   156 A       0.7009 ****
4924 N6     24.932000   -0.799000   88.143000 N2   156 A      -0.9019 ****
4925 H61    24.854000    0.169000   87.865000 H    156 A       0.4115 ****
4926 H62    24.098000   -1.346000   88.306000 H    156 A       0.4115 ****
4927 N1     27.233000   -0.613000   88.076000 NC   156 A      -0.7615 ****
4928 C2     28.430000   -1.173000   88.230000 CQ   156 A       0.5875 ****
4929 H2     29.324000   -0.592000   88.057000 H5   156 A       0.0473 ****
4930 N3     28.734000   -2.408000   88.584000 NC   156 A      -0.6997 ****
4931 C4     27.617000   -3.133000   88.800000 CB   156 A       0.3053 ****
4932 C3'    29.417000   -7.420000   90.323000 CT   156 A       0.2022 ****
4933 H3'    29.001000   -8.295000   90.822000 H1   156 A       0.0615 ****
4934 C2'    28.611000   -6.179000   90.713000 CT   156 A       0.0670 ****
4935 H2'    27.854000   -6.454000   91.448000 H1   156 A       0.0972 ****
4936 O2'    29.487000   -5.199000   91.276000 OH   156 A      -0.6139 ****
4937 HO2'   28.946000   -4.439000   91.507000 HO   156 A       0.4186 ****
4938 O3'    30.759000   -7.201000   90.731000 OS   156 A      -0.5246 ****
4939 P      29.685000   -5.553000   91.959000 P    157 U       1.1662 ****
4940 OP1    30.654000   -6.640000   92.224000 O2   157 U      -0.7760 ****
4941 OP2    28.411000   -5.582000   92.712000 O2   157 U      -0.7760 ****
4942 O5'    30.496000   -4.194000   92.188000 OS   157 U      -0.4989 ****
4943 C5'    31.442000   -3.768000   91.190000 CI   157 U       0.0558 ****
4944 H5'    30.927000   -3.621000   90.240000 H1   157 U       0.0679 ****
4945 H5''   32.213000   -4.529000   91.070000 H1   157 U       0.0679 ****
4946 C4'    32.091000   -2.460000   91.613000 CT   157 U       0.1065 ****
4947 H4'    33.025000   -2.325000   91.067000 H1   157 U       0.1174 ****
4948 O4'    31.248000   -1.351000   91.175000 OS   157 U      -0.3548 ****
4949 C1'    30.563000   -0.793000   92.287000 CT   157 U       0.0674 ****
4950 H1'    30.837000    0.257000   92.394000 H2   157 U       0.1824 ****
4951 N1     29.064000   -0.729000   91.986000 N*   157 U       0.0418 ****
4952 C6     28.228000   -1.805000   92.128000 CS   157 U      -0.1126 ****
4953 H6     28.619000   -2.753000   92.467000 H4   157 U       0.2188 ****
4954 C5     26.911000   -1.694000   91.906000 CS   157 U      -0.3635 ****
4955 H5     26.263000   -2.563000   92.025000 HA   157 U       0.1811 ****
4956 C4     26.333000   -0.436000   91.510000 C    157 U       0.5952 ****
4957 O4     25.140000   -0.240000   91.285000 O    157 U      -0.5761 ****
4958 N3     27.248000    0.591000   91.391000 NA   157 U      -0.3549 ****
4959 H3     26.858000    1.564000   91.093000 H    157 U       0.3154 ****
4960 C2     28.608000    0.507000   91.613000 C    157 U       0.4687 ****
4961 O2     29.339000    1.475000   91.482000 O    157 U      -0.5477 ****
4962 C3'    32.245000   -2.251000   93.121000 CT   157 U       0.2022 ****
4963 H3'    32.364000   -3.216000   93.612000 H1   157 U       0.0615 ****
4964 C2'    30.899000   -1.640000   93.516000 CT   157 U       0.0670 ****
4965 H2'    30.407000   -2.283000   94.246000 H1   157 U       0.0972 ****
4966 O2'    31.112000   -0.347000   94.089000 OH   157 U      -0.6139 ****
4967 HO2'   30.248000    0.002000   94.323000 HO   157 U       0.4186 ****
4968 O3'    33.260000   -1.349000   93.536000 OS   157 U      -0.5246 ****
4969 P      31.467000   -0.522000   94.769000 P    158 U       1.1662 ****
4970 OP1    32.870000   -0.912000   95.034000 O2   158 U      -0.7760 ****
4971 OP2    30.411000   -1.234000   95.522000 O2   158 U      -0.7760 ****
4972 O5'    31.415000    1.061000   94.998000 OS   158 U      -0.4989 ****
4973 C5'    31.981000    1.930000   94.000000 CI   158 U       0.0558 ****
4974 H5'    31.468000    1.776000   93.050000 H1   158 U       0.0679 ****
4975 H5''   33.041000    1.707000   93.880000 H1   158 U       0.0679 ****
4976 C4'    31.821000    3.382000   94.423000 CT   158 U       0.1065 ****
4977 H4'    32.534000    4.000000   93.877000 H1   158 U       0.1174 ****
4978 O4'    30.513000    3.859000   93.985000 OS   158 U      -0.3548 ****
4979 C1'    29.635000    3.959000   95.097000 CT   158 U       0.0674 ****
4980 H1'    29.298000    4.990000   95.204000 H2   158 U       0.1824 ****
4981 N1     28.339000    3.203000   94.796000 N*   158 U       0.0418 ****
4982 C6     28.216000    1.846000   94.938000 CS   158 U      -0.1126 ****
4983 H6     29.057000    1.260000   95.277000 H4   158 U       0.2188 ****
4984 C5     27.048000    1.227000   94.716000 CS   158 U      -0.3635 ****
4985 H5     26.972000    0.147000   94.835000 HA   158 U       0.1811 ****
4986 C4     25.882000    1.974000   94.320000 C    158 U       0.5952 ****
4987 O4     24.772000    1.494000   94.095000 O    158 U      -0.5761 ****
4988 N3     26.097000    3.332000   94.201000 NA   158 U      -0.3549 ****
4989 H3     25.243000    3.940000   93.903000 H    158 U       0.3154 ****
4990 C2     27.286000    3.997000   94.423000 C    158 U       0.4687 ****
4991 O2     27.379000    5.206000   94.292000 O    158 U      -0.5477 ****
4992 C3'    31.837000    3.641000   95.931000 CT   158 U       0.2022 ****
4993 H3'    32.459000    2.892000   96.422000 H1   158 U       0.0615 ****
4994 C2'    30.374000    3.428000   96.326000 CT   158 U       0.0670 ****
4995 H2'    30.308000    2.621000   97.056000 H1   158 U       0.0972 ****
4996 O2'    29.855000    4.631000   96.899000 OH   158 U      -0.6139 ****
4997 HO2'   28.940000    4.458000   97.133000 HO   158 U       0.4186 ****
4998 O3'    32.204000    4.948000   96.346000 OS   158 U      -0.5246 ****
4999 P      30.263000    4.691000   97.616000 P    159 A       1.1662 ****
5000 OP1    31.650000    5.127000   97.891000 O2   159 A      -0.7760 ****
5001 OP2    29.758000    3.522000   98.369000 O2   159 A      -0.7760 ****
5002 O5'    29.357000    5.992000   97.836000 OS   159 A      -0.4989 ****
5003 C5'    29.366000    7.026000   96.834000 CI   159 A       0.0558 ****
5004 H5'    29.027000    6.615000   95.883000 H1   159 A       0.0679 ****
5005 H5''   30.378000    7.415000   96.721000 H1   159 A       0.0679 ****
5006 C4'    28.440000    8.159000   97.247000 CT   159 A       0.1065 ****
5007 H4'    28.706000    9.064000   96.701000 H1   159 A       0.1174 ****
5008 O4'    27.085000    7.847000   96.800000 OS   159 A      -0.3548 ****
5009 C1'    26.286000    7.456000   97.907000 CT   159 A       0.0394 ****
5010 H1'    25.442000    8.139000   98.005000 H2   159 A       0.2007 ****
5011 N9     25.616000    6.125000   97.607000 N*   159 A      -0.0251 ****
5012 C8     26.083000    4.840000   97.696000 C5   159 A       0.2006 ****
5013 H8     27.093000    4.654000   98.030000 H5   159 A       0.1553 ****
5014 N7     25.194000    3.935000   97.411000 NB   159 A      -0.6073 ****
5015 C5     24.052000    4.669000   97.109000 CB   159 A       0.0515 ****
5016 C6     22.760000    4.290000   96.727000 CA   159 A       0.7009 ****
5017 N6     22.378000    3.015000   96.573000 N2   159 A      -0.9019 ****
5018 H61    21.430000    2.802000   96.295000 H    159 A       0.4115 ****
5019 H62    23.037000    2.267000   96.736000 H    159 A       0.4115 ****
5020 N1     21.870000    5.267000   96.506000 NC   159 A      -0.7615 ****
5021 C2     22.255000    6.531000   96.660000 CQ   159 A       0.5875 ****
5022 H2     21.554000    7.334000   96.487000 H5   159 A       0.0473 ****
5023 N3     23.435000    7.006000   97.014000 NC   159 A      -0.6997 ****
5024 C4     24.311000    6.002000   97.230000 CB   159 A       0.3053 ****
5025 C3'    28.301000    8.389000   98.753000 CT   159 A       0.2022 ****
5026 H3'    29.226000    8.100000   99.252000 H1   159 A       0.0615 ****
5027 C2'    27.186000    7.416000   99.143000 CT   159 A       0.0670 ****
5028 H2'    27.564000    6.705000   99.878000 H1   159 A       0.0972 ****
5029 O2'    26.092000    8.145000   99.706000 OH   159 A      -0.6139 ****
5030 HO2'   25.416000    7.503000   99.937000 HO   159 A       0.4186 ****
5031 O3'    27.895000    9.687000   99.161000 OS   159 A      -0.5246 ****
5032 P      26.418000    8.412000  100.426000 P    160 A       1.1662 ****
5033 OP1    27.351000    9.528000  100.701000 O2   160 A      -0.7760 ****
5034 OP2    26.626000    7.155000  101.179000 O2   160 A      -0.7760 ****
5035 O5'    24.954000    9.017000  100.646000 OS   160 A      -0.4989 ****
5036 C5'    24.403000    9.892000   99.644000 CI   160 A       0.0558 ****
5037 H5'    24.340000    9.363000   98.693000 H1   160 A       0.0679 ****
5038 H5''   25.045000   10.766000   99.531000 H1   160 A       0.0679 ****
5039 C4'    23.012000   10.345000  100.057000 CT   160 A       0.1065 ****
5040 H4'    22.746000   11.250000   99.511000 H1   160 A       0.1174 ****
5041 O4'    22.040000    9.350000   99.610000 OS   160 A      -0.3548 ****
5042 C1'    21.579000    8.590000  100.717000 CT   160 A       0.0394 ****
5043 H1'    20.499000    8.708000  100.815000 H2   160 A       0.2007 ****
5044 N9     21.734000    7.108000  100.417000 N*   160 A      -0.0251 ****
5045 C8     22.821000    6.278000  100.506000 C5   160 A       0.2006 ****
5046 H8     23.771000    6.667000  100.840000 H5   160 A       0.1553 ****
5047 N7     22.561000    5.037000  100.221000 NB   160 A      -0.6073 ****
5048 C5     21.205000    5.037000   99.919000 CB   160 A       0.0515 ****
5049 C6     20.322000    4.021000   99.537000 CA   160 A       0.7009 ****
5050 N6     20.689000    2.741000   99.383000 N2   160 A      -0.9019 ****
5051 H61    20.007000    2.050000   99.105000 H    160 A       0.4115 ****
5052 H62    21.648000    2.468000   99.546000 H    160 A       0.4115 ****
5053 N1     19.045000    4.362000   99.316000 NC   160 A      -0.7615 ****
5054 C2     18.686000    5.634000   99.470000 CQ   160 A       0.5875 ****
5055 H2     17.662000    5.931000   99.297000 H5   160 A       0.0473 ****
5056 N3     19.422000    6.671000   99.824000 NC   160 A      -0.6997 ****
5057 C4     20.702000    6.299000  100.040000 CB   160 A       0.3053 ****
5058 C3'    22.770000   10.463000  101.563000 CT   160 A       0.2022 ****
5059 H3'    23.705000   10.720000  102.062000 H1   160 A       0.0615 ****
5060 C2'    22.358000    9.042000  101.953000 CT   160 A       0.0670 ****
5061 H2'    23.060000    8.648000  102.688000 H1   160 A       0.0972 ****
5062 O2'    21.043000    9.064000  102.516000 OH   160 A      -0.6139 ****
5063 HO2'   20.822000    8.159000  102.747000 HO   160 A       0.4186 ****
5064 O3'    21.727000   11.336000  101.971000 OS   160 A      -0.5246 ****
5065 P      21.280000    9.267000  103.108000 P    161 C       1.1662 ****
5066 OP1    21.525000   10.714000  103.300000 O2   161 C      -0.7760 ****
5067 OP2    22.092000    8.330000  103.916000 O2   161 C      -0.7760 ****
5068 O5'    19.710000    9.067000  103.339000 OS   161 C      -0.4989 ****
5069 C5'    18.793000    9.488000  102.312000 CI   161 C       0.0558 ****
5070 H5'    19.005000    8.946000  101.391000 H1   161 C       0.0679 ****
5071 H5''   18.909000   10.558000  102.138000 H1   161 C       0.0679 ****
5072 C4'    17.363000    9.204000  102.742000 CT   161 C       0.1065 ****
5073 H4'    16.679000    9.821000  102.160000 H1   161 C       0.1174 ****
5074 O4'    17.023000    7.833000  102.373000 OS   161 C      -0.3548 ****
5075 C1'    17.007000    7.008000  103.529000 CT   161 C       0.0066 ****
5076 H1'    16.015000    6.574000  103.653000 H2   161 C       0.2029 ****
5077 N1     17.878000    5.827000  103.268000 N*   161 C      -0.0484 ****
5078 C6     19.228000    5.904000  103.411000 C4   161 C       0.0053 ****
5079 H6     19.686000    6.833000  103.719000 H4   161 C       0.1958 ****
5080 C5     20.020000    4.825000  103.172000 C4   161 C      -0.5215 ****
5081 H5     21.101000    4.906000  103.292000 HA   161 C       0.1928 ****
5082 C4     19.367000    3.620000  102.766000 CA   161 C       0.8185 ****
5083 N4     20.076000    2.534000  102.518000 N2   161 C      -0.9530 ****
5084 H41    19.577000    1.703000  102.234000 H    161 C       0.4234 ****
5085 H42    21.081000    2.550000  102.612000 H    161 C       0.4234 ****
5086 N3     18.046000    3.553000  102.629000 NC   161 C      -0.7584 ****
5087 C2     17.271000    4.644000  102.873000 C    161 C       0.7538 ****
5088 O2     16.036000    4.621000  102.756000 O    161 C      -0.6252 ****
5089 C3'    17.095000    9.271000  104.247000 CT   161 C       0.2022 ****
5090 H3'    17.774000    9.991000  104.706000 H1   161 C       0.0615 ****
5091 C2'    17.453000    7.860000  104.719000 CT   161 C       0.0670 ****
5092 H2'    18.259000    7.915000  105.451000 H1   161 C       0.0972 ****
5093 O2'    16.306000    7.252000  105.317000 OH   161 C      -0.6139 ****
5094 HO2'   16.570000    6.373000  105.599000 HO   161 C       0.4186 ****
5095 O3'    15.755000    9.524000  104.642000 OS   161 C      -0.5246 ****
5096 P       9.488000    0.169000  105.570000 P    162 U       1.1662 ****
5097 OP1    10.904000    0.507000  105.303000 O2   162 U      -0.7760 ****
5098 OP2     8.458000    0.925000  104.822000 O2   162 U      -0.7760 ****
5099 O5'     9.375000   -1.409000  105.332000 OS   162 U      -0.4989 ****
5100 C5'     9.909000   -2.305000  106.325000 CI   162 U       0.0558 ****
5101 H5'     9.405000   -2.135000  107.276000 H1   162 U       0.0679 ****
5102 H5''   10.977000   -2.122000  106.443000 H1   162 U       0.0679 ****
5103 C4'     9.693000   -3.746000  105.895000 CT   162 U       0.1065 ****
5104 H4'    10.383000   -4.395000  106.435000 H1   162 U       0.1174 ****
5105 O4'     8.368000   -4.176000  106.333000 OS   162 U      -0.3548 ****
5106 C1'     7.484000   -4.236000  105.223000 CT   162 U       0.0674 ****
5107 H1'     7.108000   -5.253000  105.112000 H2   162 U       0.1824 ****
5108 N1      6.219000   -3.432000  105.530000 N*   162 U       0.0418 ****
5109 C6      6.148000   -2.071000  105.396000 CS   162 U      -0.1126 ****
5110 H6      7.011000   -1.516000  105.058000 H4   162 U       0.2188 ****
5111 C5      5.005000   -1.409000  105.624000 CS   162 U      -0.3635 ****
5112 H5      4.971000   -0.326000  105.510000 HA   162 U       0.1811 ****
5113 C4      3.813000   -2.113000  106.019000 C    162 U       0.5952 ****
5114 O4      2.722000   -1.592000  106.250000 O    162 U      -0.5761 ****
5115 N3      3.976000   -3.479000  106.130000 NA   162 U      -0.3549 ****
5116 H3      3.100000   -4.055000  106.428000 H    162 U       0.3154 ****
5117 C2      5.138000   -4.187000  105.902000 C    162 U       0.4687 ****
5118 O2      5.184000   -5.400000  106.027000 O    162 U      -0.5477 ****
5119 C3'     9.695000   -3.998000  104.386000 CT   162 U       0.2022 ****
5120 H3'    10.344000   -3.272000  103.897000 H1   162 U       0.0615 ****
5121 C2'     8.241000   -3.727000  103.995000 CT   162 U       0.0670 ****
5122 H2'     8.205000   -2.914000  103.269000 H1   162 U       0.0972 ****
5123 O2'     7.675000   -4.906000  103.417000 OH   162 U      -0.6139 ****
5124 HO2'    6.767000   -4.697000  103.186000 HO   162 U       0.4186 ****
5125 O3'    10.011000   -5.316000  103.963000 OS   162 U      -0.5246 ****
5126 P       8.089000   -5.000000  102.722000 P    163 A       1.1662 ****
5127 OP1     9.459000   -5.487000  102.446000 O2   163 A      -0.7760 ****
5128 OP2     7.630000   -3.807000  101.975000 O2   163 A      -0.7760 ****
5129 O5'     7.134000   -6.263000  102.495000 OS   163 A      -0.4989 ****
5130 C5'     7.103000   -7.303000  103.491000 CI   163 A       0.0558 ****
5131 H5'     6.780000   -6.884000  104.444000 H1   163 A       0.0679 ****
5132 H5''    8.100000   -7.730000  103.602000 H1   163 A       0.0679 ****
5133 C4'     6.135000   -8.396000  103.071000 CT   163 A       0.1065 ****
5134 H4'     6.365000   -9.314000  103.612000 H1   163 A       0.1174 ****
5135 O4'     4.792000   -8.035000  103.518000 OS   163 A      -0.3548 ****
5136 C1'     4.010000   -7.608000  102.413000 CT   163 A       0.0394 ****
5137 H1'     3.140000   -8.257000  102.310000 H2   163 A       0.2007 ****
5138 N9      3.391000   -6.254000  102.720000 N*   163 A      -0.0251 ****
5139 C8      3.907000   -4.987000  102.638000 C5   163 A       0.2006 ****
5140 H8      4.924000   -4.838000  102.306000 H5   163 A       0.1553 ****
5141 N7      3.053000   -4.051000  102.928000 NB   163 A      -0.6073 ****
5142 C5      1.884000   -4.742000  103.224000 CB   163 A       0.0515 ****
5143 C6      0.606000   -4.316000  103.608000 CA   163 A       0.7009 ****
5144 N6      0.273000   -3.028000  103.769000 N2   163 A      -0.9019 ****
5145 H61    -0.665000   -2.780000  104.047000 H    163 A       0.4115 ****
5146 H62     0.961000   -2.305000  103.610000 H    163 A       0.4115 ****
5147 N1     -0.320000   -5.260000  103.823000 NC   163 A      -0.7615 ****
5148 C2      0.016000   -6.536000  103.663000 CQ   163 A       0.5875 ****
5149 H2     -0.715000   -7.313000  103.831000 H5   163 A       0.0473 ****
5150 N3      1.177000   -7.054000  103.307000 NC   163 A      -0.6997 ****
5151 C4      2.091000   -6.083000  103.097000 CB   163 A       0.3053 ****
5152 C3'     5.988000   -8.613000  101.563000 CT   163 A       0.2022 ****
5153 H3'     6.924000   -8.357000  101.066000 H1   163 A       0.0615 ****
5154 C2'     4.912000   -7.596000  101.178000 CT   163 A       0.0670 ****
5155 H2'     5.318000   -6.895000  100.448000 H1   163 A       0.0972 ****
5156 O2'     3.791000   -8.279000  100.610000 OH   163 A      -0.6139 ****
5157 HO2'    3.141000   -7.610000  100.382000 HO   163 A       0.4186 ****
5158 O3'     5.533000   -9.892000  101.147000 OS   163 A      -0.5246 ****
5159 P       4.106000   -8.577000   99.912000 P    164 A       1.1662 ****
5160 OP1     4.996000   -9.727000   99.636000 O2   164 A      -0.7760 ****
5161 OP2     4.364000   -7.326000   99.165000 O2   164 A      -0.7760 ****
5162 O5'     2.620000   -9.125000   99.685000 OS   164 A      -0.4989 ****
5163 C5'     2.032000   -9.983000  100.681000 CI   164 A       0.0558 ****
5164 H5'     1.986000   -9.456000  101.634000 H1   164 A       0.0679 ****
5165 H5''    2.640000  -10.881000  100.792000 H1   164 A       0.0679 ****
5166 C4'     0.626000  -10.380000  100.261000 CT   164 A       0.1065 ****
5167 H4'     0.325000  -11.276000  100.802000 H1   164 A       0.1174 ****
5168 O4'    -0.308000   -9.351000  100.708000 OS   164 A      -0.3548 ****
5169 C1'    -0.736000   -8.568000   99.603000 CT   164 A       0.0394 ****
5170 H1'    -1.818000   -8.645000   99.500000 H2   164 A       0.2007 ****
5171 N9     -0.525000   -7.095000   99.910000 N*   164 A      -0.0251 ****
5172 C8      0.593000   -6.307000   99.828000 C5   164 A       0.2006 ****
5173 H8      1.529000   -6.731000   99.496000 H5   164 A       0.1553 ****
5174 N7      0.381000   -5.058000  100.118000 NB   164 A      -0.6073 ****
5175 C5     -0.977000   -5.008000  100.414000 CB   164 A       0.0515 ****
5176 C6     -1.821000   -3.960000  100.798000 CA   164 A       0.7009 ****
5177 N6     -1.406000   -2.696000  100.959000 N2   164 A      -0.9019 ****
5178 H61    -2.062000   -1.980000  101.237000 H    164 A       0.4115 ****
5179 H62    -0.437000   -2.459000  100.800000 H    164 A       0.4115 ****
5180 N1     -3.111000   -4.253000  101.013000 NC   164 A      -0.7615 ****
5181 C2     -3.518000   -5.509000  100.853000 CQ   164 A       0.5875 ****
5182 H2     -4.553000   -5.767000  101.021000 H5   164 A       0.0473 ****
5183 N3     -2.820000   -6.572000  100.497000 NC   164 A      -0.6997 ****
5184 C4     -1.527000   -6.249000  100.287000 CB   164 A       0.3053 ****
5185 C3'     0.386000  -10.483000   98.753000 CT   164 A       0.2022 ****
5186 H3'     1.312000  -10.773000   98.256000 H1   164 A       0.0615 ****
5187 C2'     0.030000   -9.045000   98.368000 CT   164 A       0.0670 ****
5188 H2'     0.750000   -8.676000   97.638000 H1   164 A       0.0972 ****
5189 O2'    -1.282000   -9.015000   97.800000 OH   164 A      -0.6139 ****
5190 HO2'   -1.468000   -8.101000   97.572000 HO   164 A       0.4186 ****
5191 O3'    -0.688000  -11.313000   98.337000 OS   164 A      -0.5246 ****
5192 P      -1.178000   -9.436000   97.102000 P    165 A       1.1662 ****
5193 OP1    -1.051000  -10.885000   96.826000 O2   165 A      -0.7760 ****
5194 OP2    -0.285000   -8.523000   96.355000 O2   165 A      -0.7760 ****
5195 O5'    -2.725000   -9.094000   96.875000 OS   165 A      -0.4989 ****
5196 C5'    -3.683000   -9.498000   97.871000 CI   165 A       0.0558 ****
5197 H5'    -3.437000   -9.030000   98.824000 H1   165 A       0.0679 ****
5198 H5''   -3.657000  -10.582000   97.982000 H1   165 A       0.0679 ****
5199 C4'    -5.080000   -9.073000   97.451000 CT   165 A       0.1065 ****
5200 H4'    -5.819000   -9.665000   97.992000 H1   165 A       0.1174 ****
5201 O4'    -5.311000   -7.702000   97.898000 OS   165 A      -0.3548 ****
5202 C1'    -5.248000   -6.813000   96.793000 CT   165 A       0.0394 ****
5203 H1'    -6.201000   -6.293000   96.690000 H2   165 A       0.2007 ****
5204 N9     -4.274000   -5.687000   97.100000 N*   165 A      -0.0251 ****
5205 C8     -2.908000   -5.628000   97.018000 C5   165 A       0.2006 ****
5206 H8     -2.349000   -6.491000   96.686000 H5   165 A       0.1553 ****
5207 N7     -2.412000   -4.462000   97.308000 NB   165 A      -0.6073 ****
5208 C5     -3.527000   -3.687000   97.604000 CB   165 A       0.0515 ****
5209 C6     -3.672000   -2.348000   97.988000 CA   165 A       0.7009 ****
5210 N6     -2.639000   -1.509000   98.149000 N2   165 A      -0.9019 ****
5211 H61    -2.805000   -0.552000   98.427000 H    165 A       0.4115 ****
5212 H62    -1.696000   -1.833000   97.990000 H    165 A       0.4115 ****
5213 N1     -4.916000   -1.898000   98.203000 NC   165 A      -0.7615 ****
5214 C2     -5.936000   -2.736000   98.043000 CQ   165 A       0.5875 ****
5215 H2     -6.947000   -2.394000   98.211000 H5   165 A       0.0473 ****
5216 N3     -5.924000   -4.007000   97.687000 NC   165 A      -0.6997 ****
5217 C4     -4.661000   -4.434000   97.477000 CB   165 A       0.3053 ****
5218 C3'    -5.338000   -9.030000   95.943000 CT   165 A       0.2022 ****
5219 H3'    -4.716000   -9.775000   95.446000 H1   165 A       0.0615 ****
5220 C2'    -4.861000   -7.628000   95.558000 CT   165 A       0.0670 ****
5221 H2'    -4.056000   -7.706000   94.828000 H1   165 A       0.0972 ****
5222 O2'    -5.949000   -6.893000   94.990000 OH   165 A      -0.6139 ****
5223 HO2'   -5.612000   -6.024000   94.762000 HO   165 A       0.4186 ****
5224 O3'    -6.691000   -9.149000   95.527000 OS   165 A      -0.5246 ****
5225 P      -5.902000   -7.211000   94.395000 P    166 G       1.1662 ****
5226 OP1    -6.536000   -8.535000   94.209000 O2   166 G      -0.7760 ****
5227 OP2    -4.704000   -6.912000   93.579000 O2   166 G      -0.7760 ****
5228 O5'    -7.072000   -6.144000   94.169000 OS   166 G      -0.4989 ****
5229 C5'    -8.058000   -5.959000   95.203000 CI   166 G       0.0558 ****
5230 H5'    -7.567000   -5.636000   96.121000 H1   166 G       0.0679 ****
5231 H5''   -8.578000   -6.901000   95.382000 H1   166 G       0.0679 ****
5232 C4'    -9.067000   -4.905000   94.777000 CT   166 G       0.1065 ****
5233 H4'    -9.978000   -5.014000   95.365000 H1   166 G       0.1174 ****
5234 O4'    -8.553000   -3.587000   95.140000 OS   166 G      -0.3548 ****
5235 C1'    -8.099000   -2.905000   93.981000 CT   166 G       0.0191 ****
5236 H1'    -8.662000   -1.979000   93.859000 H2   166 G       0.2006 ****
5237 N9     -6.706000   -2.440000   94.234000 N*   166 G       0.0492 ****
5238 C8     -5.522000   -3.141000   94.136000 CP   166 G       0.1374 ****
5239 H8     -5.532000   -4.179000   93.839000 H5   166 G       0.1640 ****
5240 N7     -4.459000   -2.435000   94.432000 NB   166 G      -0.5709 ****
5241 C5     -4.968000   -1.181000   94.747000 CB   166 G       0.1744 ****
5242 C6     -4.304000    0.009000   95.146000 C    166 G       0.4770 ****
5243 O6     -3.100000    0.202000   95.307000 O    166 G      -0.5597 ****
5244 N1     -5.212000    1.052000   95.366000 NA   166 G      -0.4787 ****
5245 H1     -4.838000    1.934000   95.653000 H    166 G       0.3424 ****
5246 C2     -6.581000    0.960000   95.218000 CA   166 G       0.7657 ****
5247 N2     -7.276000    2.076000   95.478000 N2   166 G      -0.9672 ****
5248 H21    -6.907000    2.966000   95.779000 H    166 G       0.4364 ****
5249 H22    -8.280000    2.015000   95.380000 H    166 G       0.4364 ****
5250 N3     -7.201000   -0.155000   94.842000 NC   166 G      -0.6323 ****
5251 C4     -6.333000   -1.178000   94.624000 CB   166 G       0.1222 ****
5252 C3'    -9.334000   -4.808000   93.274000 CT   166 G       0.2022 ****
5253 H3'    -9.196000   -5.788000   92.816000 H1   166 G       0.0615 ****
5254 C2'    -8.232000   -3.861000   92.794000 CT   166 G       0.0670 ****
5255 H2'    -7.610000   -4.370000   92.058000 H1   166 G       0.0972 ****
5256 O2'    -8.824000   -2.704000   92.197000 OH   166 G      -0.6139 ****
5257 HO2'   -8.105000   -2.137000   91.910000 HO   166 G       0.4186 ****
5258 O3'   -10.578000   -4.244000   92.886000 OS   166 G      -0.5246 ****
5259 P      -9.070000   -2.857000   91.482000 P    167 A       1.1662 ****
5260 OP1   -10.334000   -3.576000   91.206000 O2   167 A      -0.7760 ****
5261 OP2    -7.868000   -3.289000   90.735000 O2   167 A      -0.7760 ****
5262 O5'    -9.403000   -1.308000   91.255000 OS   167 A      -0.4989 ****
5263 C5'   -10.169000   -0.605000   92.251000 CI   167 A       0.0558 ****
5264 H5'    -9.641000   -0.634000   93.204000 H1   167 A       0.0679 ****
5265 H5''  -11.144000   -1.080000   92.362000 H1   167 A       0.0679 ****
5266 C4'   -10.364000    0.842000   91.831000 CT   167 A       0.1065 ****
5267 H4'   -11.210000    1.268000   92.372000 H1   167 A       0.1174 ****
5268 O4'    -9.214000    1.622000   92.278000 OS   167 A      -0.3548 ****
5269 C1'    -8.379000    1.936000   91.173000 CT   167 A       0.0394 ****
5270 H1'    -8.303000    3.018000   91.070000 H2   167 A       0.2007 ****
5271 N9     -6.950000    1.519000   91.480000 N*   167 A      -0.0251 ****
5272 C8     -6.328000    0.301000   91.398000 C5   167 A       0.2006 ****
5273 H8     -6.880000   -0.566000   91.066000 H5   167 A       0.1553 ****
5274 N7     -5.061000    0.336000   91.688000 NB   167 A      -0.6073 ****
5275 C5     -4.820000    1.672000   91.984000 CB   167 A       0.0515 ****
5276 C6     -3.663000    2.361000   92.368000 CA   167 A       0.7009 ****
5277 N6     -2.471000    1.772000   92.529000 N2   167 A      -0.9019 ****
5278 H61    -1.670000    2.320000   92.807000 H    167 A       0.4115 ****
5279 H62    -2.373000    0.779000   92.370000 H    167 A       0.4115 ****
5280 N1     -3.772000    3.679000   92.583000 NC   167 A      -0.7615 ****
5281 C2     -4.959000    4.259000   92.423000 CQ   167 A       0.5875 ****
5282 H2     -5.068000    5.320000   92.591000 H5   167 A       0.0473 ****
5283 N3     -6.109000    3.718000   92.067000 NC   167 A      -0.6997 ****
5284 C4     -5.971000    2.392000   91.857000 CB   167 A       0.3053 ****
5285 C3'   -10.432000    1.095000   90.323000 CT   167 A       0.2022 ****
5286 H3'   -10.851000    0.219000   89.826000 H1   167 A       0.0615 ****
5287 C2'    -8.959000    1.245000   89.938000 CT   167 A       0.0670 ****
5288 H2'    -8.695000    0.480000   89.208000 H1   167 A       0.0972 ****
5289 O2'    -8.744000    2.540000   89.370000 OH   167 A      -0.6139 ****
5290 HO2'   -7.813000    2.595000   89.142000 HO   167 A       0.4186 ****
5291 O3'   -11.103000    2.275000   89.907000 OS   167 A      -0.5246 ****
5292 P      -9.176000    2.496000   88.672000 P    168 A       1.1662 ****
5293 OP1   -10.628000    2.574000   88.396000 O2   168 A      -0.7760 ****
5294 OP2    -8.397000    1.483000   87.925000 O2   168 A      -0.7760 ****
5295 O5'    -8.619000    3.979000   88.445000 OS   168 A      -0.4989 ****
5296 C5'    -8.885000    4.985000   89.441000 CI   168 A       0.0558 ****
5297 H5'    -8.456000    4.675000   90.394000 H1   168 A       0.0679 ****
5298 H5''   -9.962000    5.111000   89.552000 H1   168 A       0.0679 ****
5299 C4'    -8.267000    6.308000   89.021000 CT   168 A       0.1065 ****
5300 H4'    -8.748000    7.123000   89.562000 H1   168 A       0.1174 ****
5301 O4'    -6.877000    6.343000   89.468000 OS   168 A      -0.3548 ****
5302 C1'    -6.005000    6.156000   88.363000 CT   168 A       0.0394 ****
5303 H1'    -5.356000    7.025000   88.260000 H2   168 A       0.2007 ****
5304 N9     -5.028000    5.033000   88.670000 N*   168 A      -0.0251 ****
5305 C8     -5.162000    3.672000   88.588000 C5   168 A       0.2006 ****
5306 H8     -6.095000    3.241000   88.256000 H5   168 A       0.1553 ****
5307 N7     -4.077000    3.017000   88.878000 NB   168 A      -0.6073 ****
5308 C5     -3.153000    4.011000   89.174000 CB   168 A       0.0515 ****
5309 C6     -1.807000    3.966000   89.558000 CA   168 A       0.7009 ****
5310 N6     -1.122000    2.826000   89.719000 N2   168 A      -0.9019 ****
5311 H61    -0.152000    2.854000   89.997000 H    168 A       0.4115 ****
5312 H62    -1.576000    1.937000   89.560000 H    168 A       0.4115 ****
5313 N1     -1.187000    5.134000   89.773000 NC   168 A      -0.7615 ****
5314 C2     -1.872000    6.263000   89.613000 CQ   168 A       0.5875 ****
5315 H2     -1.391000    7.215000   89.781000 H5   168 A       0.0473 ****
5316 N3     -3.132000    6.429000   89.257000 NC   168 A      -0.6997 ****
5317 C4     -3.733000    5.239000   89.047000 CB   168 A       0.3053 ****
5318 C3'    -8.188000    6.557000   87.513000 CT   168 A       0.2022 ****
5319 H3'    -9.013000    6.046000   87.016000 H1   168 A       0.0615 ****
5320 C2'    -6.867000    5.888000   87.128000 CT   168 A       0.0670 ****
5321 H2'    -7.057000    5.101000   86.398000 H1   168 A       0.0972 ****
5322 O2'    -5.986000    6.861000   86.560000 OH   168 A      -0.6139 ****
5323 HO2'   -5.173000    6.405000   86.332000 HO   168 A       0.4186 ****
5324 O3'    -8.115000    7.913000   87.097000 OS   168 A      -0.5246 ****
5325 P      -6.307000    6.859000   85.965000 P    169 G       1.1662 ****
5326 OP1    -7.529000    7.673000   85.779000 O2   169 G      -0.7760 ****
5327 OP2    -6.180000    5.631000   85.149000 O2   169 G      -0.7760 ****
5328 O5'    -5.086000    7.867000   85.739000 OS   169 G      -0.4989 ****
5329 C5'    -4.764000    8.817000   86.773000 CI   169 G       0.0558 ****
5330 H5'    -4.513000    8.286000   87.691000 H1   169 G       0.0679 ****
5331 H5''   -5.623000    9.465000   86.952000 H1   169 G       0.0679 ****
5332 C4'    -3.578000    9.667000   86.347000 CT   169 G       0.1065 ****
5333 H4'    -3.558000   10.585000   86.935000 H1   169 G       0.1174 ****
5334 O4'    -2.346000    8.973000   86.710000 OS   169 G      -0.3548 ****
5335 C1'    -1.735000    8.428000   85.551000 CT   169 G       0.0191 ****
5336 H1'    -0.739000    8.855000   85.429000 H2   169 G       0.2006 ****
5337 N9     -1.471000    6.983000   85.804000 N*   169 G       0.0492 ****
5338 C8     -2.332000    5.909000   85.706000 CP   169 G       0.1374 ****
5339 H8     -3.358000    6.065000   85.409000 H5   169 G       0.1640 ****
5340 N7     -1.782000    4.757000   86.002000 NB   169 G      -0.5709 ****
5341 C5     -0.469000    5.085000   86.317000 CB   169 G       0.1744 ****
5342 C6      0.615000    4.260000   86.716000 C    169 G       0.4770 ****
5343 O6      0.637000    3.040000   86.877000 O    169 G      -0.5597 ****
5344 N1      1.776000    5.012000   86.936000 NA   169 G      -0.4787 ****
5345 H1      2.596000    4.517000   87.223000 H    169 G       0.3424 ****
5346 C2      1.878000    6.380000   86.788000 CA   169 G       0.7657 ****
5347 N2      3.080000    6.911000   87.048000 N2   169 G      -0.9672 ****
5348 H21     3.909000    6.420000   87.349000 H    169 G       0.4364 ****
5349 H22     3.161000    7.913000   86.950000 H    169 G       0.4364 ****
5350 N3      0.862000    7.151000   86.412000 NC   169 G      -0.6323 ****
5351 C4     -0.274000    6.436000   86.194000 CB   169 G       0.1222 ****
5352 C3'    -3.445000    9.918000   84.844000 CT   169 G       0.2022 ****
5353 H3'    -4.434000    9.920000   84.386000 H1   169 G       0.0615 ****
5354 C2'    -2.662000    8.694000   84.364000 CT   169 G       0.0670 ****
5355 H2'    -3.254000    8.150000   83.628000 H1   169 G       0.0972 ****
5356 O2'    -1.434000    9.117000   83.767000 OH   169 G      -0.6139 ****
5357 HO2'   -0.974000    8.325000   83.480000 HO   169 G       0.4186 ****
5358 O3'    -2.712000   11.071000   84.456000 OS   169 G      -0.5246 ****
5359 P      -1.608000    9.154000   83.160000 P    170 C       1.1662 ****
5360 OP1    -2.205000   10.495000   82.968000 O2   170 C      -0.7760 ****
5361 OP2    -2.160000    8.044000   82.352000 O2   170 C      -0.7760 ****
5362 O5'    -0.037000    9.351000   82.930000 OS   170 C      -0.4989 ****
5363 C5'     0.746000    9.987000   83.958000 CI   170 C       0.0558 ****
5364 H5'     0.675000    9.409000   84.879000 H1   170 C       0.0679 ****
5365 H5''    0.367000   10.994000   84.132000 H1   170 C       0.0679 ****
5366 C4'     2.201000   10.067000   83.528000 CT   170 C       0.1065 ****
5367 H4'     2.711000   10.835000   84.111000 H1   170 C       0.1174 ****
5368 O4'     2.872000    8.824000   83.897000 OS   170 C      -0.3548 ****
5369 C1'     3.093000    8.029000   82.741000 CT   170 C       0.0066 ****
5370 H1'     4.162000    7.856000   82.618000 H2   170 C       0.2029 ****
5371 N1      2.544000    6.669000   83.002000 N*   170 C      -0.0484 ****
5372 C6      1.217000    6.408000   82.858000 C4   170 C       0.0053 ****
5373 H6      0.542000    7.193000   82.549000 H4   170 C       0.1958 ****
5374 C5      0.718000    5.166000   83.096000 C4   170 C      -0.5215 ****
5375 H5     -0.349000    4.974000   82.976000 HA   170 C       0.1928 ****
5376 C4      1.650000    4.160000   83.502000 CA   170 C       0.8185 ****
5377 N4      1.234000    2.933000   83.750000 N2   170 C      -0.9530 ****
5378 H41     1.924000    2.251000   84.034000 H    170 C       0.4234 ****
5379 H42     0.256000    2.697000   83.655000 H    170 C       0.4234 ****
5380 N3      2.946000    4.425000   83.640000 NC   170 C      -0.7584 ****
5381 C2      3.426000    5.674000   83.397000 C    170 C       0.7538 ****
5382 O2      4.627000    5.959000   83.515000 O    170 C      -0.6252 ****
5383 C3'     2.445000   10.200000   82.023000 CT   170 C       0.2022 ****
5384 H3'     1.609000   10.728000   81.565000 H1   170 C       0.0615 ****
5385 C2'     2.450000    8.744000   81.551000 CT   170 C       0.0670 ****
5386 H2'     1.656000    8.597000   80.819000 H1   170 C       0.0972 ****
5387 O2'     3.712000    8.440000   80.953000 OH   170 C      -0.6139 ****
5388 HO2'    3.676000    7.524000   80.671000 HO   170 C       0.4186 ****
5389 O3'     3.680000   10.778000   81.629000 OS   170 C      -0.5246 ****
5390 P       3.611000    8.590000   80.345000 P    171 G       1.1662 ****
5391 OP1     3.842000   10.040000   80.159000 O2   171 G      -0.7760 ****
5392 OP2     2.547000    7.963000   79.529000 O2   171 G      -0.7760 ****
5393 O5'     5.036000    7.899000   80.119000 OS   171 G      -0.4989 ****
5394 C5'     6.034000    8.003000   81.153000 CI   171 G       0.0558 ****
5395 H5'     5.655000    7.553000   82.071000 H1   171 G       0.0679 ****
5396 H5''    6.265000    9.053000   81.332000 H1   171 G       0.0679 ****
5397 C4'     7.300000    7.278000   80.727000 CT   171 G       0.1065 ****
5398 H4'     8.143000    7.642000   81.315000 H1   171 G       0.1174 ****
5399 O4'     7.182000    5.869000   81.090000 OS   171 G      -0.3548 ****
5400 C1'     6.941000    5.086000   79.931000 CT   171 G       0.0191 ****
5401 H1'     7.743000    4.358000   79.809000 H2   171 G       0.2006 ****
5402 N9      5.737000    4.244000   80.184000 N*   171 G       0.0492 ****
5403 C8      4.402000    4.580000   80.086000 CP   171 G       0.1374 ****
5404 H8      4.117000    5.578000   79.789000 H5   171 G       0.1640 ****
5405 N7      3.584000    3.601000   80.382000 NB   171 G      -0.5709 ****
5406 C5      4.428000    2.543000   80.697000 CB   171 G       0.1744 ****
5407 C6      4.129000    1.214000   81.096000 C    171 G       0.4770 ****
5408 O6      3.030000    0.686000   81.257000 O    171 G      -0.5597 ****
5409 N1      5.296000    0.472000   81.316000 NA   171 G      -0.4787 ****
5410 H1      5.188000   -0.480000   81.603000 H    171 G       0.3424 ****
5411 C2      6.582000    0.949000   81.168000 CA   171 G       0.7657 ****
5412 N2      7.566000    0.076000   81.428000 N2   171 G      -0.9672 ****
5413 H21     7.465000   -0.882000   81.729000 H    171 G       0.4364 ****
5414 H22     8.511000    0.420000   81.330000 H    171 G       0.4364 ****
5415 N3      6.861000    2.193000   80.792000 NC   171 G      -0.6323 ****
5416 C4      5.737000    2.928000   80.574000 CB   171 G       0.1222 ****
5417 C3'     7.584000    7.261000   79.224000 CT   171 G       0.2022 ****
5418 H3'     7.174000    8.161000   78.766000 H1   171 G       0.0615 ****
5419 C2'     6.797000    6.040000   78.744000 CT   171 G       0.0670 ****
5420 H2'     6.055000    6.351000   78.008000 H1   171 G       0.0972 ****
5421 O2'     7.693000    5.099000   78.147000 OH   171 G      -0.6139 ****
5422 HO2'    7.164000    4.351000   77.860000 HO   171 G       0.4186 ****
5423 O3'     8.937000    7.074000   78.836000 OS   171 G      -0.5246 ****
5424 P       7.679000    5.278000   77.535000 P    172 G3      1.1662 ****
5425 OP1     8.657000    6.373000   77.349000 O2   172 G3     -0.7760 ****
5426 OP2     6.445000    5.325000   76.719000 O2   172 G3     -0.7760 ****
5427 O5'     8.505000    3.926000   77.309000 OS   172 G3     -0.4989 ****
5428 C5'     9.401000    3.475000   78.343000 CI   172 G3      0.0558 ****
5429 H5'     8.839000    3.301000   79.261000 H1   172 G3      0.0679 ****
5430 H5''   10.162000    4.233000   78.522000 H1   172 G3      0.0679 ****
5431 C4'    10.075000    2.180000   77.917000 CT   172 G3      0.1065 ****
5432 H4'    10.981000    2.032000   78.505000 H1   172 G3      0.1174 ****
5433 O4'     9.214000    1.058000   78.280000 OS   172 G3     -0.3548 ****
5434 C1'     8.588000    0.530000   77.121000 CT   172 G3      0.0191 ****
5435 H1'     8.870000   -0.516000   76.999000 H2   172 G3      0.2006 ****
5436 N9      7.121000    0.472000   77.374000 N*   172 G3      0.0492 ****
5437 C8      6.179000    1.476000   77.276000 CP   172 G3      0.1374 ****
5438 H8      6.478000    2.470000   76.979000 H5   172 G3      0.1640 ****
5439 N7      4.961000    1.094000   77.572000 NB   172 G3     -0.5709 ****
5440 C5      5.101000   -0.252000   77.887000 CB   172 G3      0.1744 ****
5441 C6      4.130000   -1.209000   78.286000 C    172 G3      0.4770 ****
5442 O6      2.920000   -1.059000   78.447000 O    172 G3     -0.5597 ****
5443 N1      4.711000   -2.464000   78.506000 NA   172 G3     -0.4787 ****
5444 H1      4.106000   -3.207000   78.793000 H    172 G3      0.3424 ****
5445 C2      6.052000   -2.758000   78.358000 CA   172 G3      0.7657 ****
5446 N2      6.408000   -4.023000   78.618000 N2   172 G3     -0.9672 ****
5447 H21     5.805000   -4.775000   78.919000 H    172 G3      0.4364 ****
5448 H22     7.389000   -4.245000   78.520000 H    172 G3      0.4364 ****
5449 N3      6.959000   -1.861000   77.982000 NC   172 G3     -0.6323 ****
5450 C4      6.410000   -0.636000   77.764000 CB   172 G3      0.1222 ****
5451 C3'    10.305000    2.013000   76.414000 CT   172 G3      0.2022 ****
5452 H3'    10.445000    2.992000   75.956000 H1   172 G3      0.0615 ****
5453 C2'     8.983000    1.411000   75.934000 CT   172 G3      0.0670 ****
5454 H2'     8.527000    2.074000   75.198000 H1   172 G3      0.0972 ****
5455 O2'     9.228000    0.135000   75.337000 OH   172 G3     -0.6139 ****
5456 HO2'    8.379000   -0.209000   75.050000 HO   172 G3      0.4186 ****
5457 O3'    11.342000    1.125000   76.026000 OH   172 G3     -0.6541 ****
5458 HO3'   11.467000    1.036000   75.078000 HO   172 G3      0.4376 ****
5459 HO5'   29.935000   -4.863000   -0.766000 HO   173 G5      0.4295 ****
5460 O5'    30.443000   -4.060000   -0.630000 OH   173 G5     -0.6223 ****
5461 C5'    31.346000   -3.621000   -1.663000 CI   173 G5      0.0558 ****
5462 H5'    30.787000   -3.439000   -2.581000 H1   173 G5      0.0679 ****
5463 H5''   32.096000   -4.392000   -1.842000 H1   173 G5      0.0679 ****
5464 C4'    32.040000   -2.338000   -1.237000 CT   173 G5      0.1065 ****
5465 H4'    32.948000   -2.203000   -1.825000 H1   173 G5      0.1174 ****
5466 O4'    31.197000   -1.203000   -1.600000 OS   173 G5     -0.3548 ****
5467 C1'    30.579000   -0.665000   -0.441000 CT   173 G5      0.0191 ****
5468 H1'    30.877000    0.376000   -0.319000 H2   173 G5      0.2006 ****
5469 N9     29.113000   -0.584000   -0.694000 N*   173 G5      0.0492 ****
5470 C8     28.155000   -1.573000   -0.598000 CP   173 G5      0.1374 ****
5471 H8     28.439000   -2.572000   -0.301000 H5   173 G5      0.1640 ****
5472 N7     26.944000   -1.172000   -0.893000 NB   173 G5     -0.5709 ****
5473 C5     27.104000    0.172000   -1.208000 CB   173 G5      0.1744 ****
5474 C6     26.149000    1.144000   -1.608000 C    173 G5      0.4770 ****
5475 O6     24.937000    1.013000   -1.769000 O    173 G5     -0.5597 ****
5476 N1     26.750000    2.389000   -1.827000 NA   173 G5     -0.4787 ****
5477 H1     26.156000    3.142000   -2.114000 H    173 G5      0.3424 ****
5478 C2     28.094000    2.662000   -1.678000 CA   173 G5      0.7657 ****
5479 N2     28.471000    3.922000   -1.937000 N2   173 G5     -0.9672 ****
5480 H21    27.879000    4.683000   -2.239000 H    173 G5      0.4364 ****
5481 H22    29.454000    4.128000   -1.839000 H    173 G5      0.4364 ****
5482 N3     28.987000    1.751000   -1.302000 NC   173 G5     -0.6323 ****
5483 C4     28.419000    0.535000   -1.085000 CB   173 G5      0.1222 ****
5484 C3'    32.272000   -2.175000    0.266000 CT   173 G5      0.2022 ****
5485 H3'    32.397000   -3.156000    0.724000 H1   173 G5      0.0615 ****
5486 C2'    30.959000   -1.552000    0.746000 CT   173 G5      0.0670 ****
5487 H2'    30.493000   -2.208000    1.481000 H1   173 G5      0.0972 ****
5488 O2'    31.224000   -0.280000    1.343000 OH   173 G5     -0.6139 ****
5489 HO2'   30.380000    0.077000    1.630000 HO   173 G5      0.4186 ****
5490 O3'    33.323000   -1.302000    0.655000 OS   173 G5     -0.5246 ****
5491 P      31.309000   -0.439000    1.953000 P    174 G       1.1662 ****
5492 OP1    32.717000   -0.854000    2.139000 O2   174 G      -0.7760 ****
5493 OP2    30.285000   -1.130000    2.768000 O2   174 G      -0.7760 ****
5494 O5'    31.298000    1.145000    2.180000 OS   174 G      -0.4989 ****
5495 C5'    31.821000    2.002000    1.147000 CI   174 G       0.0558 ****
5496 H5'    31.252000    1.854000    0.229000 H1   174 G       0.0679 ****
5497 H5''   32.868000    1.758000    0.968000 H1   174 G       0.0679 ****
5498 C4'    31.712000    3.457000    1.573000 CT   174 G       0.1065 ****
5499 H4'    32.403000    4.061000    0.985000 H1   174 G       0.1174 ****
5500 O4'    30.389000    3.957000    1.210000 OS   174 G      -0.3548 ****
5501 C1'    29.578000    4.075000    2.369000 CT   174 G       0.0191 ****
5502 H1'    29.267000    5.113000    2.491000 H2   174 G       0.2006 ****
5503 N9     28.301000    3.351000    2.116000 N*   174 G       0.0492 ****
5504 C8     28.029000    2.001000    2.212000 CP   174 G       0.1374 ****
5505 H8     28.808000    1.314000    2.509000 H5   174 G       0.1640 ****
5506 N7     26.793000    1.684000    1.917000 NB   174 G      -0.5709 ****
5507 C5     26.202000    2.902000    1.602000 CB   174 G       0.1744 ****
5508 C6     24.873000    3.204000    1.202000 C    174 G       0.4770 ****
5509 O6     23.924000    2.439000    1.041000 O    174 G      -0.5597 ****
5510 N1     24.706000    4.577000    0.983000 NA   174 G      -0.4787 ****
5511 H1     23.801000    4.889000    0.696000 H    174 G       0.3424 ****
5512 C2     25.690000    5.533000    1.132000 CA   174 G       0.7657 ****
5513 N2     25.326000    6.796000    0.873000 N2   174 G      -0.9672 ****
5514 H21    24.417000    7.117000    0.571000 H    174 G       0.4364 ****
5515 H22    26.043000    7.501000    0.971000 H    174 G       0.4364 ****
5516 N3     26.934000    5.248000    1.508000 NC   174 G      -0.6323 ****
5517 C4     27.113000    3.918000    1.725000 CB   174 G       0.1222 ****
5518 C3'    31.819000    3.719000    3.076000 CT   174 G       0.2022 ****
5519 H3'    32.454000    2.961000    3.534000 H1   174 G       0.0615 ****
5520 C2'    30.378000    3.534000    3.556000 CT   174 G       0.0670 ****
5521 H2'    30.339000    2.730000    4.291000 H1   174 G       0.0972 ****
5522 O2'    29.914000    4.748000    4.153000 OH   174 G      -0.6139 ****
5523 HO2'   29.011000    4.592000    4.440000 HO   174 G       0.4186 ****
5524 O3'    32.232000    5.021000    3.465000 OS   174 G      -0.5246 ****
5525 P      30.188000    4.821000    4.886000 P    175 A       1.1662 ****
5526 OP1    31.568000    5.278000    5.161000 O2   175 A      -0.7760 ****
5527 OP2    29.702000    3.643000    5.639000 O2   175 A      -0.7760 ****
5528 O5'    29.262000    6.107000    5.106000 OS   175 A      -0.4989 ****
5529 C5'    29.255000    7.141000    4.104000 CI   175 A       0.0558 ****
5530 H5'    28.923000    6.725000    3.153000 H1   175 A       0.0679 ****
5531 H5''   30.261000    7.545000    3.991000 H1   175 A       0.0679 ****
5532 C4'    28.311000    8.259000    4.517000 CT   175 A       0.1065 ****
5533 H4'    28.562000    9.168000    3.971000 H1   175 A       0.1174 ****
5534 O4'    26.961000    7.926000    4.070000 OS   175 A      -0.3548 ****
5535 C1'    26.168000    7.522000    5.177000 CT   175 A       0.0394 ****
5536 H1'    25.313000    8.192000    5.275000 H2   175 A       0.2007 ****
5537 N9     25.519000    6.181000    4.877000 N*   175 A      -0.0251 ****
5538 C8     26.006000    4.903000    4.966000 C5   175 A       0.2006 ****
5539 H8     27.019000    4.733000    5.300000 H5   175 A       0.1553 ****
5540 N7     25.131000    3.985000    4.681000 NB   175 A      -0.6073 ****
5541 C5     23.978000    4.700000    4.379000 CB   175 A       0.0515 ****
5542 C6     22.692000    4.302000    3.997000 CA   175 A       0.7009 ****
5543 N6     22.330000    3.021000    3.843000 N2   175 A      -0.9019 ****
5544 H61    21.386000    2.792000    3.565000 H    175 A       0.4115 ****
5545 H62    23.001000    2.283000    4.006000 H    175 A       0.4115 ****
5546 N1     21.787000    5.265000    3.776000 NC   175 A      -0.7615 ****
5547 C2     22.152000    6.534000    3.930000 CQ   175 A       0.5875 ****
5548 H2     21.439000    7.326000    3.757000 H5   175 A       0.0473 ****
5549 N3     23.324000    7.028000    4.284000 NC   175 A      -0.6997 ****
5550 C4     24.216000    6.038000    4.500000 CB   175 A       0.3053 ****
5551 C3'    28.168000    8.487000    6.023000 CT   175 A       0.2022 ****
5552 H3'    29.098000    8.213000    6.522000 H1   175 A       0.0615 ****
5553 C2'    27.069000    7.496000    6.413000 CT   175 A       0.0670 ****
5554 H2'    27.458000    6.791000    7.148000 H1   175 A       0.0972 ****
5555 O2'    25.963000    8.208000    6.976000 OH   175 A      -0.6139 ****
5556 HO2'   25.298000    7.555000    7.207000 HO   175 A       0.4186 ****
5557 O3'    27.742000    9.778000    6.431000 OS   175 A      -0.5246 ****
5558 P      26.272000    8.256000    7.568000 P    176 C       1.1662 ****
5559 OP1    27.242000    9.357000    7.760000 O2   176 C      -0.7760 ****
5560 OP2    26.467000    7.031000    8.376000 O2   176 C      -0.7760 ****
5561 O5'    24.831000    8.913000    7.799000 OS   176 C      -0.4989 ****
5562 C5'    24.274000    9.754000    6.772000 CI   176 C       0.0558 ****
5563 H5'    24.168000    9.181000    5.851000 H1   176 C       0.0679 ****
5564 H5''   24.936000   10.602000    6.598000 H1   176 C       0.0679 ****
5565 C4'    22.909000   10.266000    7.202000 CT   176 C       0.1065 ****
5566 H4'    22.652000   11.151000    6.620000 H1   176 C       0.1174 ****
5567 O4'    21.898000    9.279000    6.833000 OS   176 C      -0.3548 ****
5568 C1'    21.449000    8.587000    7.989000 CT   176 C       0.0066 ****
5569 H1'    20.377000    8.741000    8.113000 H2   176 C       0.2029 ****
5570 N1     21.567000    7.125000    7.728000 N*   176 C      -0.0484 ****
5571 C6     22.755000    6.479000    7.871000 C4   176 C       0.0053 ****
5572 H6     23.634000    7.026000    8.179000 H4   176 C       0.1958 ****
5573 C5     22.860000    5.144000    7.632000 C4   176 C      -0.5215 ****
5574 H5     23.821000    4.643000    7.752000 HA   176 C       0.1928 ****
5575 C4     21.670000    4.464000    7.226000 CA   176 C       0.8185 ****
5576 N4     21.700000    3.168000    6.978000 N2   176 C      -0.9530 ****
5577 H41    20.838000    2.724000    6.694000 H    176 C       0.4234 ****
5578 H42    22.563000    2.651000    7.072000 H    176 C       0.4234 ****
5579 N3     20.512000    5.104000    7.089000 NC   176 C      -0.7584 ****
5580 C2     20.427000    6.439000    7.333000 C    176 C       0.7538 ****
5581 O2     19.367000    7.070000    7.216000 O    176 C      -0.6252 ****
5582 C3'    22.717000   10.464000    8.707000 CT   176 C       0.2022 ****
5583 H3'    23.673000   10.718000    9.166000 H1   176 C       0.0615 ****
5584 C2'    22.278000    9.076000    9.179000 CT   176 C       0.0670 ****
5585 H2'    22.991000    8.698000    9.911000 H1   176 C       0.0972 ****
5586 O2'    20.982000    9.164000    9.777000 OH   176 C      -0.6139 ****
5587 HO2'   20.743000    8.278000   10.059000 HO   176 C       0.4186 ****
5588 O3'    21.711000   11.385000    9.102000 OS   176 C      -0.5246 ****
5589 P      21.135000    9.255000   10.378000 P    177 C       1.1662 ****
5590 OP1    21.356000   10.706000   10.570000 O2   177 C      -0.7760 ****
5591 OP2    21.961000    8.330000   11.186000 O2   177 C      -0.7760 ****
5592 O5'    19.568000    9.030000   10.609000 OS   177 C      -0.4989 ****
5593 C5'    18.644000    9.437000    9.582000 CI   177 C       0.0558 ****
5594 H5'    18.865000    8.898000    8.661000 H1   177 C       0.0679 ****
5595 H5''   18.743000   10.508000    9.408000 H1   177 C       0.0679 ****
5596 C4'    17.219000    9.130000   10.012000 CT   177 C       0.1065 ****
5597 H4'    16.525000    9.736000    9.430000 H1   177 C       0.1174 ****
5598 O4'    16.901000    7.753000    9.643000 OS   177 C      -0.3548 ****
5599 C1'    16.898000    6.929000   10.799000 CT   177 C       0.0066 ****
5600 H1'    15.912000    6.479000   10.923000 H2   177 C       0.2029 ****
5601 N1     17.787000    5.762000   10.538000 N*   177 C      -0.0484 ****
5602 C6     19.135000    5.860000   10.681000 C4   177 C       0.0053 ****
5603 H6     19.579000    6.795000   10.989000 H4   177 C       0.1958 ****
5604 C5     19.945000    4.794000   10.442000 C4   177 C      -0.5215 ****
5605 H5     21.024000    4.891000   10.562000 HA   177 C       0.1928 ****
5606 C4     19.310000    3.578000   10.036000 CA   177 C       0.8185 ****
5607 N4     20.036000    2.504000    9.788000 N2   177 C      -0.9530 ****
5608 H41    19.551000    1.665000    9.504000 H    177 C       0.4234 ****
5609 H42    21.041000    2.535000    9.882000 H    177 C       0.4234 ****
5610 N3     17.991000    3.491000    9.899000 NC   177 C      -0.7584 ****
5611 C2     17.198000    4.569000   10.143000 C    177 C       0.7538 ****
5612 O2     15.964000    4.527000   10.026000 O    177 C      -0.6252 ****
5613 C3'    16.950000    9.193000   11.517000 CT   177 C       0.2022 ****
5614 H3'    17.617000    9.923000   11.976000 H1   177 C       0.0615 ****
5615 C2'    17.330000    7.788000   11.989000 CT   177 C       0.0670 ****
5616 H2'    18.135000    7.855000   12.721000 H1   177 C       0.0972 ****
5617 O2'    16.193000    7.161000   12.587000 OH   177 C      -0.6139 ****
5618 HO2'   16.470000    6.286000   12.869000 HO   177 C       0.4186 ****
5619 O3'    15.606000    9.425000   11.912000 OS   177 C      -0.5246 ****
5620 P      16.074000    7.427000   13.316000 P    178 A       1.1662 ****
5621 OP1    15.426000    8.729000   13.591000 O2   178 A      -0.7760 ****
5622 OP2    17.308000    7.111000   14.069000 O2   178 A      -0.7760 ****
5623 O5'    14.931000    6.329000   13.536000 OS   178 A      -0.4989 ****
5624 C5'    13.908000    6.176000   12.534000 CI   178 A       0.0558 ****
5625 H5'    14.367000    5.906000   11.583000 H1   178 A       0.0679 ****
5626 H5''   13.366000    7.115000   12.421000 H1   178 A       0.0679 ****
5627 C4'    12.935000    5.084000   12.947000 CT   178 A       0.1065 ****
5628 H4'    11.999000    5.205000   12.401000 H1   178 A       0.1174 ****
5629 O4'    13.454000    3.795000   12.500000 OS   178 A      -0.3548 ****
5630 C1'    13.965000    3.067000   13.607000 CT   178 A       0.0394 ****
5631 H1'    13.423000    2.126000   13.705000 H2   178 A       0.2007 ****
5632 N9     15.385000    2.613000   13.307000 N*   178 A      -0.0251 ****
5633 C8     16.581000    3.275000   13.396000 C5   178 A       0.2006 ****
5634 H8     16.607000    4.302000   13.730000 H5   178 A       0.1553 ****
5635 N7     17.614000    2.539000   13.111000 NB   178 A      -0.6073 ****
5636 C5     17.068000    1.296000   12.809000 CB   178 A       0.0515 ****
5637 C6     17.644000    0.079000   12.427000 CA   178 A       0.7009 ****
5638 N6     18.963000   -0.099000   12.273000 N2   178 A      -0.9019 ****
5639 H61    19.322000   -1.001000   11.995000 H    178 A       0.4115 ****
5640 H62    19.599000    0.669000   12.436000 H    178 A       0.4115 ****
5641 N1     16.818000   -0.952000   12.206000 NC   178 A      -0.7615 ****
5642 C2     15.509000   -0.770000   12.360000 CQ   178 A       0.5875 ****
5643 H2     14.826000   -1.588000   12.187000 H5   178 A       0.0473 ****
5644 N3     14.856000    0.321000   12.714000 NC   178 A      -0.6997 ****
5645 C4     15.710000    1.343000   12.930000 CB   178 A       0.3053 ****
5646 C3'    12.729000    4.911000   14.453000 CT   178 A       0.2022 ****
5647 H3'    12.869000    5.870000   14.952000 H1   178 A       0.0615 ****
5648 C2'    13.864000    3.962000   14.843000 CT   178 A       0.0670 ****
5649 H2'    14.507000    4.447000   15.578000 H1   178 A       0.0972 ****
5650 O2'    13.316000    2.767000   15.406000 OH   178 A      -0.6139 ****
5651 HO2'   14.055000    2.201000   15.637000 HO   178 A       0.4186 ****
5652 O3'    11.510000    4.307000   14.861000 OS   178 A      -0.5246 ****
5653 P      13.001000    3.048000   16.126000 P    179 A       1.1662 ****
5654 OP1    11.752000    3.794000   16.401000 O2   179 A      -0.7760 ****
5655 OP2    14.210000    3.450000   16.879000 O2   179 A      -0.7760 ****
5656 O5'    12.632000    1.507000   16.346000 OS   179 A      -0.4989 ****
5657 C5'    11.854000    0.826000   15.344000 CI   179 A       0.0558 ****
5658 H5'    12.386000    0.846000   14.393000 H1   179 A       0.0679 ****
5659 H5''   10.890000    1.323000   15.231000 H1   179 A       0.0679 ****
5660 C4'    11.625000   -0.619000   15.757000 CT   179 A       0.1065 ****
5661 H4'    10.772000   -1.023000   15.211000 H1   179 A       0.1174 ****
5662 O4'    12.759000   -1.423000   15.310000 OS   179 A      -0.3548 ****
5663 C1'    13.582000   -1.760000   16.417000 CT   179 A       0.0394 ****
5664 H1'    13.634000   -2.844000   16.515000 H2   179 A       0.2007 ****
5665 N9     15.021000   -1.374000   16.117000 N*   179 A      -0.0251 ****
5666 C8     15.671000   -0.171000   16.206000 C5   179 A       0.2006 ****
5667 H8     15.137000    0.707000   16.540000 H5   179 A       0.1553 ****
5668 N7     16.937000   -0.233000   15.921000 NB   179 A      -0.6073 ****
5669 C5     17.149000   -1.574000   15.619000 CB   179 A       0.0515 ****
5670 C6     18.291000   -2.287000   15.237000 CA   179 A       0.7009 ****
5671 N6     19.498000   -1.724000   15.083000 N2   179 A      -0.9019 ****
5672 H61    20.287000   -2.289000   14.805000 H    179 A       0.4115 ****
5673 H62    19.618000   -0.734000   15.246000 H    179 A       0.4115 ****
5674 N1     18.154000   -3.601000   15.016000 NC   179 A      -0.7615 ****
5675 C2     16.954000   -4.154000   15.170000 CQ   179 A       0.5875 ****
5676 H2     16.821000   -5.212000   14.997000 H5   179 A       0.0473 ****
5677 N3     15.815000   -3.590000   15.524000 NC   179 A      -0.6997 ****
5678 C4     15.982000   -2.267000   15.740000 CB   179 A       0.3053 ****
5679 C3'    11.545000   -0.876000   17.263000 CT   179 A       0.2022 ****
5680 H3'    11.145000    0.007000   17.762000 H1   179 A       0.0615 ****
5681 C2'    13.013000   -1.061000   17.653000 CT   179 A       0.0670 ****
5682 H2'    13.292000   -0.306000   18.388000 H1   179 A       0.0972 ****
5683 O2'    13.197000   -2.363000   18.216000 OH   179 A      -0.6139 ****
5684 HO2'   14.126000   -2.440000   18.447000 HO   179 A       0.4186 ****
5685 O3'    10.846000   -2.043000   17.671000 OS   179 A      -0.5246 ****
5686 P      12.939000   -2.176000   18.813000 P    180 G       1.1662 ****
5687 OP1    11.470000   -2.170000   18.999000 O2   180 G      -0.7760 ****
5688 OP2    13.729000   -1.227000   19.628000 O2   180 G      -0.7760 ****
5689 O5'    13.390000   -3.694000   19.040000 OS   180 G      -0.4989 ****
5690 C5'    13.127000   -4.662000   18.007000 CI   180 G       0.0558 ****
5691 H5'    13.632000   -4.361000   17.089000 H1   180 G       0.0679 ****
5692 H5''   12.054000   -4.721000   17.828000 H1   180 G       0.0679 ****
5693 C4'    13.638000   -6.029000   18.433000 CT   180 G       0.1065 ****
5694 H4'    13.143000   -6.802000   17.845000 H1   180 G       0.1174 ****
5695 O4'    15.048000   -6.140000   18.070000 OS   180 G      -0.3548 ****
5696 C1'    15.860000   -6.028000   19.229000 CT   180 G       0.0191 ****
5697 H1'    16.448000   -6.937000   19.351000 H2   180 G       0.2006 ****
5698 N9     16.884000   -4.976000   18.976000 N*   180 G       0.0492 ****
5699 C8     16.768000   -3.604000   19.072000 CP   180 G       0.1374 ****
5700 H8     15.829000   -3.161000   19.369000 H5   180 G       0.1640 ****
5701 N7     17.867000   -2.955000   18.777000 NB   180 G      -0.5709 ****
5702 C5     18.774000   -3.959000   18.462000 CB   180 G       0.1744 ****
5703 C6     20.135000   -3.879000   18.062000 C    180 G       0.4770 ****
5704 O6     20.832000   -2.879000   17.901000 O    180 G      -0.5597 ****
5705 N1     20.678000   -5.150000   17.843000 NA   180 G      -0.4787 ****
5706 H1     21.635000   -5.197000   17.556000 H    180 G       0.3424 ****
5707 C2     20.000000   -6.343000   17.992000 CA   180 G       0.7657 ****
5708 N2     20.702000   -7.454000   17.733000 N2   180 G      -0.9672 ****
5709 H21    21.664000   -7.509000   17.431000 H    180 G       0.4364 ****
5710 H22    20.211000   -8.331000   17.831000 H    180 G       0.4364 ****
5711 N3     18.727000   -6.416000   18.368000 NC   180 G      -0.6323 ****
5712 C4     18.183000   -5.189000   18.585000 CB   180 G       0.1222 ****
5713 C3'    13.609000   -6.311000   19.936000 CT   180 G       0.2022 ****
5714 H3'    12.787000   -5.760000   20.394000 H1   180 G       0.0615 ****
5715 C2'    14.941000   -5.731000   20.416000 CT   180 G       0.0670 ****
5716 H2'    14.753000   -4.948000   21.151000 H1   180 G       0.0972 ****
5717 O2'    15.725000   -6.767000   21.013000 OH   180 G      -0.6139 ****
5718 HO2'   16.549000   -6.366000   21.300000 HO   180 G       0.4186 ****
5719 O3'    13.575000   -7.676000   20.325000 OS   180 G      -0.5246 ****
5720 P      15.482000   -6.914000   21.746000 P    181 A       1.1662 ****
5721 OP1    14.284000   -7.738000   22.021000 O2   181 A      -0.7760 ****
5722 OP2    15.621000   -5.647000   22.499000 O2   181 A      -0.7760 ****
5723 O5'    16.730000   -7.890000   21.966000 OS   181 A      -0.4989 ****
5724 C5'    17.026000   -8.882000   20.964000 CI   181 A       0.0558 ****
5725 H5'    17.228000   -8.389000   20.013000 H1   181 A       0.0679 ****
5726 H5''   16.172000   -9.550000   20.851000 H1   181 A       0.0679 ****
5727 C4'    18.244000   -9.691000   21.377000 CT   181 A       0.1065 ****
5728 H4'    18.256000  -10.635000   20.831000 H1   181 A       0.1174 ****
5729 O4'    19.447000   -8.995000   20.930000 OS   181 A      -0.3548 ****
5730 C1'    20.096000   -8.387000   22.037000 CT   181 A       0.0394 ****
5731 H1'    21.103000   -8.791000   22.135000 H2   181 A       0.2007 ****
5732 N9     20.345000   -6.917000   21.737000 N*   181 A      -0.0251 ****
5733 C8     19.521000   -5.826000   21.826000 C5   181 A       0.2006 ****
5734 H8     18.501000   -5.945000   22.160000 H5   181 A       0.1553 ****
5735 N7     20.105000   -4.700000   21.541000 NB   181 A      -0.6073 ****
5736 C5     21.412000   -5.066000   21.239000 CB   181 A       0.0515 ****
5737 C6     22.535000   -4.324000   20.857000 CA   181 A       0.7009 ****
5738 N6     22.526000   -2.993000   20.703000 N2   181 A      -0.9019 ****
5739 H61    23.368000   -2.510000   20.425000 H    181 A       0.4115 ****
5740 H62    21.676000   -2.472000   20.866000 H    181 A       0.4115 ****
5741 N1     23.673000   -4.996000   20.636000 NC   181 A      -0.7615 ****
5742 C2     23.677000   -6.317000   20.790000 CQ   181 A       0.5875 ****
5743 H2     24.583000   -6.879000   20.617000 H5   181 A       0.0473 ****
5744 N3     22.689000   -7.118000   21.144000 NC   181 A      -0.6997 ****
5745 C4     21.556000   -6.416000   21.360000 CB   181 A       0.3053 ****
5746 C3'    18.444000   -9.871000   22.883000 CT   181 A       0.2022 ****
5747 H3'    17.475000   -9.867000   23.382000 H1   181 A       0.0615 ****
5748 C2'    19.224000   -8.613000   23.273000 CT   181 A       0.0670 ****
5749 H2'    18.653000   -8.044000   24.008000 H1   181 A       0.0972 ****
5750 O2'    20.484000   -8.988000   23.836000 OH   181 A      -0.6139 ****
5751 HO2'   20.941000   -8.176000   24.067000 HO   181 A       0.4186 ****
5752 O3'    19.214000  -10.992000   23.291000 OS   181 A      -0.5246 ****
5753 P      20.247000   -9.318000   24.519000 P    182 U       1.1662 ****
5754 OP1    19.677000  -10.658000   24.784000 O2   182 U      -0.7760 ****
5755 OP2    19.679000   -8.178000   25.272000 O2   182 U      -0.7760 ****
5756 O5'    21.823000   -9.473000   24.748000 OS   182 U      -0.4989 ****
5757 C5'    22.611000  -10.147000   23.750000 CI   182 U       0.0558 ****
5758 H5'    22.525000   -9.619000   22.800000 H1   182 U       0.0679 ****
5759 H5''   22.251000  -11.169000   23.630000 H1   182 U       0.0679 ****
5760 C4'    24.071000  -10.178000   24.173000 CT   182 U       0.1065 ****
5761 H4'    24.591000  -10.966000   23.627000 H1   182 U       0.1174 ****
5762 O4'    24.715000   -8.944000   23.735000 OS   182 U      -0.3548 ****
5763 C1'    24.929000   -8.086000   24.847000 CT   182 U       0.0674 ****
5764 H1'    25.995000   -7.887000   24.954000 H2   182 U       0.1824 ****
5765 N1     24.348000   -6.703000   24.546000 N*   182 U       0.0418 ****
5766 C6     23.019000   -6.403000   24.688000 CS   182 U      -0.1126 ****
5767 H6     22.328000   -7.161000   25.027000 H4   182 U       0.2188 ****
5768 C5     22.558000   -5.165000   24.466000 CS   182 U      -0.3635 ****
5769 H5     21.496000   -4.949000   24.585000 HA   182 U       0.1811 ****
5770 C4     23.451000   -4.107000   24.070000 C    182 U       0.5952 ****
5771 O4     23.120000   -2.944000   23.845000 O    182 U      -0.5761 ****
5772 N3     24.769000   -4.497000   23.951000 NA   182 U      -0.3549 ****
5773 H3     25.483000   -3.730000   23.653000 H    182 U       0.3154 ****
5774 C2     25.272000   -5.763000   24.173000 C    182 U       0.4687 ****
5775 O2     26.459000   -6.012000   24.042000 O    182 U      -0.5477 ****
5776 C3'    24.325000  -10.228000   25.681000 CT   182 U       0.2022 ****
5777 H3'    23.502000  -10.747000   26.172000 H1   182 U       0.0615 ****
5778 C2'    24.305000   -8.750000   26.076000 CT   182 U       0.0670 ****
5779 H2'    23.514000   -8.579000   26.806000 H1   182 U       0.0972 ****
5780 O2'    25.566000   -8.392000   26.649000 OH   182 U      -0.6139 ****
5781 HO2'   25.514000   -7.462000   26.883000 HO   182 U       0.4186 ****
5782 O3'    25.574000  -10.762000   26.096000 OS   182 U      -0.5246 ****
5783 P      25.573000   -8.804000   27.366000 P    183 A       1.1662 ****
5784 OP1    25.824000  -10.237000   27.641000 O2   183 A      -0.7760 ****
5785 OP2    24.479000   -8.151000   28.119000 O2   183 A      -0.7760 ****
5786 O5'    26.980000   -8.076000   27.586000 OS   183 A      -0.4989 ****
5787 C5'    28.005000   -8.220000   26.584000 CI   183 A       0.0558 ****
5788 H5'    27.641000   -7.831000   25.633000 H1   183 A       0.0679 ****
5789 H5''   28.258000   -9.274000   26.471000 H1   183 A       0.0679 ****
5790 C4'    29.248000   -7.450000   26.997000 CT   183 A       0.1065 ****
5791 H4'    30.111000   -7.831000   26.451000 H1   183 A       0.1174 ****
5792 O4'    29.116000   -6.066000   26.550000 OS   183 A      -0.3548 ****
5793 C1'    28.833000   -5.222000   27.657000 CT   183 A       0.0394 ****
5794 H1'    29.620000   -4.475000   27.755000 H2   183 A       0.2007 ****
5795 N9     27.600000   -4.385000   27.357000 N*   183 A      -0.0251 ****
5796 C8     26.265000   -4.679000   27.446000 C5   183 A       0.2006 ****
5797 H8     25.949000   -5.657000   27.780000 H5   183 A       0.1553 ****
5798 N7     25.485000   -3.680000   27.161000 NB   183 A      -0.6073 ****
5799 C5     26.361000   -2.644000   26.859000 CB   183 A       0.0515 ****
5800 C6     26.154000   -1.313000   26.477000 CA   183 A       0.7009 ****
5801 N6     24.940000   -0.768000   26.323000 N2   183 A      -0.9019 ****
5802 H61    24.852000    0.199000   26.045000 H    183 A       0.4115 ****
5803 H62    24.112000   -1.324000   26.486000 H    183 A       0.4115 ****
5804 N1     27.239000   -0.559000   26.256000 NC   183 A      -0.7615 ****
5805 C2     28.442000   -1.105000   26.410000 CQ   183 A       0.5875 ****
5806 H2     29.330000   -0.515000   26.237000 H5   183 A       0.0473 ****
5807 N3     28.759000   -2.337000   26.764000 NC   183 A      -0.6997 ****
5808 C4     27.649000   -3.074000   26.980000 CB   183 A       0.3053 ****
5809 C3'    29.495000   -7.342000   28.503000 CT   183 A       0.2022 ****
5810 H3'    29.088000   -8.221000   29.002000 H1   183 A       0.0615 ****
5811 C2'    28.676000   -6.110000   28.893000 CT   183 A       0.0670 ****
5812 H2'    27.921000   -6.392000   29.628000 H1   183 A       0.0972 ****
5813 O2'    29.541000   -5.120000   29.456000 OH   183 A      -0.6139 ****
5814 HO2'   28.993000   -4.366000   29.687000 HO   183 A       0.4186 ****
5815 O3'    30.834000   -7.109000   28.911000 OS   183 A      -0.5246 ****
5816 P      29.568000   -5.438000   30.053000 P    184 G       1.1662 ****
5817 OP1    30.523000   -6.553000   30.239000 O2   184 G      -0.7760 ****
5818 OP2    28.333000   -5.460000   30.868000 O2   184 G      -0.7760 ****
5819 O5'    30.422000   -4.104000   30.280000 OS   184 G      -0.4989 ****
5820 C5'    31.327000   -3.670000   29.247000 CI   184 G       0.0558 ****
5821 H5'    30.769000   -3.485000   28.329000 H1   184 G       0.0679 ****
5822 H5''   32.073000   -4.445000   29.068000 H1   184 G       0.0679 ****
5823 C4'    32.028000   -2.391000   29.673000 CT   184 G       0.1065 ****
5824 H4'    32.937000   -2.260000   29.085000 H1   184 G       0.1174 ****
5825 O4'    31.191000   -1.251000   29.310000 OS   184 G      -0.3548 ****
5826 C1'    30.575000   -0.710000   30.469000 CT   184 G       0.0191 ****
5827 H1'    30.879000    0.330000   30.591000 H2   184 G       0.2006 ****
5828 N9     29.110000   -0.621000   30.216000 N*   184 G       0.0492 ****
5829 C8     28.147000   -1.605000   30.312000 CP   184 G       0.1374 ****
5830 H8     28.425000   -2.606000   30.609000 H5   184 G       0.1640 ****
5831 N7     26.937000   -1.198000   30.017000 NB   184 G      -0.5709 ****
5832 C5     27.105000    0.145000   29.702000 CB   184 G       0.1744 ****
5833 C6     26.155000    1.122000   29.302000 C    184 G       0.4770 ****
5834 O6     24.942000    0.997000   29.141000 O    184 G      -0.5597 ****
5835 N1     26.762000    2.365000   29.083000 NA   184 G      -0.4787 ****
5836 H1     26.173000    3.120000   28.796000 H    184 G       0.3424 ****
5837 C2     28.108000    2.630000   29.232000 CA   184 G       0.7657 ****
5838 N2     28.491000    3.888000   28.973000 N2   184 G      -0.9672 ****
5839 H21    27.904000    4.652000   28.671000 H    184 G       0.4364 ****
5840 H22    29.476000    4.089000   29.071000 H    184 G       0.4364 ****
5841 N3     28.996000    1.715000   29.608000 NC   184 G      -0.6323 ****
5842 C4     28.422000    0.501000   29.825000 CB   184 G       0.1222 ****
5843 C3'    32.260000   -2.228000   31.176000 CT   184 G       0.2022 ****
5844 H3'    32.380000   -3.210000   31.634000 H1   184 G       0.0615 ****
5845 C2'    30.951000   -1.599000   31.656000 CT   184 G       0.0670 ****
5846 H2'    30.481000   -2.252000   32.391000 H1   184 G       0.0972 ****
5847 O2'    31.223000   -0.328000   32.253000 OH   184 G      -0.6139 ****
5848 HO2'   30.381000    0.033000   32.540000 HO   184 G       0.4186 ****
5849 O3'    33.316000   -1.362000   31.565000 OS   184 G      -0.5246 ****
5850 P      31.492000   -0.416000   32.986000 P    185 A       1.1662 ****
5851 OP1    32.899000   -0.785000   33.261000 O2   185 A      -0.7760 ****
5852 OP2    30.443000   -1.139000   33.739000 O2   185 A      -0.7760 ****
5853 O5'    31.416000    1.167000   33.206000 OS   185 A      -0.4989 ****
5854 C5'    31.974000    2.038000   32.204000 CI   185 A       0.0558 ****
5855 H5'    31.468000    1.869000   31.253000 H1   185 A       0.0679 ****
5856 H5''   33.038000    1.829000   32.091000 H1   185 A       0.0679 ****
5857 C4'    31.791000    3.489000   32.617000 CT   185 A       0.1065 ****
5858 H4'    32.497000    4.115000   32.071000 H1   185 A       0.1174 ****
5859 O4'    30.477000    3.945000   32.170000 OS   185 A      -0.3548 ****
5860 C1'    29.593000    4.039000   33.277000 CT   185 A       0.0394 ****
5861 H1'    29.240000    5.065000   33.375000 H2   185 A       0.2007 ****
5862 N9     28.318000    3.267000   32.977000 N*   185 A      -0.0251 ****
5863 C8     28.030000    1.930000   33.066000 C5   185 A       0.2006 ****
5864 H8     28.787000    1.236000   33.400000 H5   185 A       0.1553 ****
5865 N7     26.796000    1.637000   32.781000 NB   185 A      -0.6073 ****
5866 C5     26.219000    2.865000   32.479000 CB   185 A       0.0515 ****
5867 C6     24.923000    3.231000   32.097000 CA   185 A       0.7009 ****
5868 N6     23.922000    2.353000   31.943000 N2   185 A      -0.9019 ****
5869 H61    23.006000    2.676000   31.665000 H    185 A       0.4115 ****
5870 H62    24.083000    1.370000   32.106000 H    185 A       0.4115 ****
5871 N1     24.689000    4.531000   31.876000 NC   185 A      -0.7615 ****
5872 C2     25.687000    5.397000   32.030000 CQ   185 A       0.5875 ****
5873 H2     25.519000    6.450000   31.857000 H5   185 A       0.0473 ****
5874 N3     26.938000    5.173000   32.384000 NC   185 A      -0.6997 ****
5875 C4     27.147000    3.857000   32.600000 CB   185 A       0.3053 ****
5876 C3'    31.795000    3.758000   34.123000 CT   185 A       0.2022 ****
5877 H3'    32.426000    3.022000   34.622000 H1   185 A       0.0615 ****
5878 C2'    30.334000    3.526000   34.513000 CT   185 A       0.0670 ****
5879 H2'    30.277000    2.723000   35.248000 H1   185 A       0.0972 ****
5880 O2'    29.794000    4.725000   35.076000 OH   185 A      -0.6139 ****
5881 HO2'   28.881000    4.540000   35.307000 HO   185 A       0.4186 ****
5882 O3'    32.141000    5.073000   34.531000 OS   185 A      -0.5246 ****
5883 P      30.213000    4.778000   35.796000 P    186 A       1.1662 ****
5884 OP1    31.596000    5.228000   36.071000 O2   186 A      -0.7760 ****
5885 OP2    29.721000    3.603000   36.549000 O2   186 A      -0.7760 ****
5886 O5'    29.294000    6.069000   36.016000 OS   186 A      -0.4989 ****
5887 C5'    29.292000    7.103000   35.014000 CI   186 A       0.0558 ****
5888 H5'    28.958000    6.688000   34.063000 H1   186 A       0.0679 ****
5889 H5''   30.300000    7.502000   34.901000 H1   186 A       0.0679 ****
5890 C4'    28.354000    8.226000   35.427000 CT   186 A       0.1065 ****
5891 H4'    28.610000    9.133000   34.881000 H1   186 A       0.1174 ****
5892 O4'    27.003000    7.900000   34.980000 OS   186 A      -0.3548 ****
5893 C1'    26.208000    7.500000   36.087000 CT   186 A       0.0394 ****
5894 H1'    25.356000    8.174000   36.185000 H2   186 A       0.2007 ****
5895 N9     25.552000    6.162000   35.787000 N*   186 A      -0.0251 ****
5896 C8     26.032000    4.882000   35.876000 C5   186 A       0.2006 ****
5897 H8     27.044000    4.707000   36.210000 H5   186 A       0.1553 ****
5898 N7     25.152000    3.968000   35.591000 NB   186 A      -0.6073 ****
5899 C5     24.003000    4.690000   35.289000 CB   186 A       0.0515 ****
5900 C6     22.715000    4.298000   34.907000 CA   186 A       0.7009 ****
5901 N6     22.346000    3.019000   34.753000 N2   186 A      -0.9019 ****
5902 H61    21.401000    2.795000   34.475000 H    186 A       0.4115 ****
5903 H62    23.013000    2.278000   34.916000 H    186 A       0.4115 ****
5904 N1     21.815000    5.266000   34.686000 NC   186 A      -0.7615 ****
5905 C2     22.187000    6.534000   34.840000 CQ   186 A       0.5875 ****
5906 H2     21.477000    7.329000   34.667000 H5   186 A       0.0473 ****
5907 N3     23.361000    7.021000   35.194000 NC   186 A      -0.6997 ****
5908 C4     24.248000    6.026000   35.410000 CB   186 A       0.3053 ****
5909 C3'    28.213000    8.454000   36.933000 CT   186 A       0.2022 ****
5910 H3'    29.141000    8.175000   37.432000 H1   186 A       0.0615 ****
5911 C2'    27.108000    7.470000   37.323000 CT   186 A       0.0670 ****
5912 H2'    27.494000    6.763000   38.058000 H1   186 A       0.0972 ****
5913 O2'    26.006000    8.187000   37.886000 OH   186 A      -0.6139 ****
5914 HO2'   25.338000    7.538000   38.117000 HO   186 A       0.4186 ****
5915 O3'    27.793000    9.748000   37.341000 OS   186 A      -0.5246 ****
5916 P      26.327000    8.437000   38.569000 P    187 U       1.1662 ****
5917 OP1    27.254000    9.559000   38.834000 O2   187 U      -0.7760 ****
5918 OP2    26.548000    7.182000   39.322000 O2   187 U      -0.7760 ****
5919 O5'    24.860000    9.033000   38.798000 OS   187 U      -0.4989 ****
5920 C5'    24.296000    9.903000   37.800000 CI   187 U       0.0558 ****
5921 H5'    24.229000    9.372000   36.850000 H1   187 U       0.0679 ****
5922 H5''   24.932000   10.781000   37.680000 H1   187 U       0.0679 ****
5923 C4'    22.905000   10.347000   38.223000 CT   187 U       0.1065 ****
5924 H4'    22.630000   11.250000   37.677000 H1   187 U       0.1174 ****
5925 O4'    21.937000    9.346000   37.785000 OS   187 U      -0.3548 ****
5926 C1'    21.489000    8.585000   38.897000 CT   187 U       0.0674 ****
5927 H1'    20.410000    8.697000   39.004000 H2   187 U       0.1824 ****
5928 N1     21.652000    7.094000   38.596000 N*   187 U       0.0418 ****
5929 C6     22.842000    6.429000   38.738000 CS   187 U      -0.1126 ****
5930 H6     23.720000    6.960000   39.077000 H4   187 U       0.2188 ****
5931 C5     22.932000    5.111000   38.516000 CS   187 U      -0.3635 ****
5932 H5     23.889000    4.602000   38.635000 HA   187 U       0.1811 ****
5933 C4     21.776000    4.350000   38.120000 C    187 U       0.5952 ****
5934 O4     21.762000    3.140000   37.895000 O    187 U      -0.5761 ****
5935 N3     20.622000    5.098000   38.001000 NA   187 U      -0.3549 ****
5936 H3     19.720000    4.565000   37.703000 H    187 U       0.3154 ****
5937 C2     20.499000    6.455000   38.223000 C    187 U       0.4687 ****
5938 O2     19.432000    7.031000   38.092000 O    187 U      -0.5477 ****
5939 C3'    22.675000   10.467000   39.731000 CT   187 U       0.2022 ****
5940 H3'    23.612000   10.731000   40.222000 H1   187 U       0.0615 ****
5941 C2'    22.275000    9.044000   40.126000 CT   187 U       0.0670 ****
5942 H2'    22.985000    8.656000   40.856000 H1   187 U       0.0972 ****
5943 O2'    20.965000    9.059000   40.699000 OH   187 U      -0.6139 ****
5944 HO2'   20.750000    8.153000   40.933000 HO   187 U       0.4186 ****
5945 O3'    21.630000   11.334000   40.146000 OS   187 U      -0.5246 ****
5946 P      21.171000    9.282000   41.293000 P    188 G       1.1662 ****
5947 OP1    21.391000   10.734000   41.479000 O2   188 G      -0.7760 ****
5948 OP2    21.995000    8.362000   42.108000 O2   188 G      -0.7760 ****
5949 O5'    19.603000    9.057000   41.520000 OS   188 G      -0.4989 ****
5950 C5'    18.684000    9.459000   40.487000 CI   188 G       0.0558 ****
5951 H5'    18.908000    8.915000   39.569000 H1   188 G       0.0679 ****
5952 H5''   18.783000   10.529000   40.308000 H1   188 G       0.0679 ****
5953 C4'    17.257000    9.153000   40.913000 CT   188 G       0.1065 ****
5954 H4'    16.565000    9.756000   40.325000 H1   188 G       0.1174 ****
5955 O4'    16.941000    7.775000   40.550000 OS   188 G      -0.3548 ****
5956 C1'    16.934000    6.955000   41.709000 CT   188 G       0.0191 ****
5957 H1'    15.949000    6.506000   41.831000 H2   188 G       0.2006 ****
5958 N9     17.825000    5.788000   41.456000 N*   188 G       0.0492 ****
5959 C8     19.199000    5.702000   41.552000 CP   188 G       0.1374 ****
5960 H8     19.774000    6.566000   41.849000 H5   188 G       0.1640 ****
5961 N7     19.681000    4.521000   41.257000 NB   188 G      -0.5709 ****
5962 C5     18.554000    3.769000   40.942000 CB   188 G       0.1744 ****
5963 C6     18.436000    2.412000   40.542000 C    188 G       0.4770 ****
5964 O6     19.323000    1.576000   40.381000 O    188 G      -0.5597 ****
5965 N1     17.098000    2.060000   40.323000 NA   188 G      -0.4787 ****
5966 H1     16.912000    1.120000   40.036000 H    188 G       0.3424 ****
5967 C2     16.018000    2.905000   40.472000 CA   188 G       0.7657 ****
5968 N2     14.815000    2.373000   40.213000 N2   188 G      -0.9672 ****
5969 H21    14.621000    1.429000   39.911000 H    188 G       0.4364 ****
5970 H22    14.020000    2.987000   40.311000 H    188 G       0.4364 ****
5971 N3     16.131000    4.176000   40.848000 NC   188 G      -0.6323 ****
5972 C4     17.425000    4.534000   41.065000 CB   188 G       0.1222 ****
5973 C3'    16.983000    9.223000   42.416000 CT   188 G       0.2022 ****
5974 H3'    17.647000    9.956000   42.874000 H1   188 G       0.0615 ****
5975 C2'    17.362000    7.820000   42.896000 CT   188 G       0.0670 ****
5976 H2'    18.163000    7.892000   43.631000 H1   188 G       0.0972 ****
5977 O2'    16.222000    7.196000   43.493000 OH   188 G      -0.6139 ****
5978 HO2'   16.499000    6.323000   43.780000 HO   188 G       0.4186 ****
5979 O3'    15.637000    9.456000   42.805000 OS   188 G      -0.5246 ****
5980 P       9.506000    0.262000   43.712000 P    189 A       1.1662 ****
5981 OP1    10.918000    0.608000   43.436000 O2   189 A      -0.7760 ****
5982 OP2     8.468000    1.007000   42.965000 O2   189 A      -0.7760 ****
5983 O5'     9.402000   -1.318000   43.485000 OS   189 A      -0.4989 ****
5984 C5'     9.946000   -2.204000   44.481000 CI   189 A       0.0558 ****
5985 H5'     9.446000   -2.031000   45.434000 H1   189 A       0.0679 ****
5986 H5''   11.014000   -2.014000   44.592000 H1   189 A       0.0679 ****
5987 C4'     9.737000   -3.650000   44.061000 CT   189 A       0.1065 ****
5988 H4'    10.434000   -4.290000   44.602000 H1   189 A       0.1174 ****
5989 O4'     8.417000   -4.085000   44.508000 OS   189 A      -0.3548 ****
5990 C1'     7.528000   -4.157000   43.403000 CT   189 A       0.0394 ****
5991 H1'     7.158000   -5.177000   43.300000 H2   189 A       0.2007 ****
5992 N9      6.268000   -3.365000   43.710000 N*   189 A      -0.0251 ****
5993 C8      6.003000   -2.023000   43.628000 C5   189 A       0.2006 ****
5994 H8      6.771000   -1.341000   43.296000 H5   189 A       0.1553 ****
5995 N7      4.775000   -1.710000   43.918000 NB   189 A      -0.6073 ****
5996 C5      4.178000   -2.929000   44.214000 CB   189 A       0.0515 ****
5997 C6      2.876000   -3.274000   44.598000 CA   189 A       0.7009 ****
5998 N6      1.891000   -2.381000   44.759000 N2   189 A      -0.9019 ****
5999 H61     0.970000   -2.689000   45.037000 H    189 A       0.4115 ****
6000 H62     2.068000   -1.399000   44.600000 H    189 A       0.4115 ****
6001 N1      2.620000   -4.572000   44.813000 NC   189 A      -0.7615 ****
6002 C2      3.602000   -5.454000   44.653000 CQ   189 A       0.5875 ****
6003 H2      3.417000   -6.505000   44.821000 H5   189 A       0.0473 ****
6004 N3      4.857000   -5.250000   44.297000 NC   189 A      -0.6997 ****
6005 C4      5.088000   -3.936000   44.087000 CB   189 A       0.3053 ****
6006 C3'     9.733000   -3.911000   42.553000 CT   189 A       0.2022 ****
6007 H3'    10.375000   -3.183000   42.056000 H1   189 A       0.0615 ****
6008 C2'     8.276000   -3.652000   42.168000 CT   189 A       0.0670 ****
6009 H2'     8.230000   -2.844000   41.438000 H1   189 A       0.0972 ****
6010 O2'     7.714000   -4.838000   41.600000 OH   189 A      -0.6139 ****
6011 HO2'    6.803000   -4.636000   41.372000 HO   189 A       0.4186 ****
6012 O3'    10.055000   -5.230000   42.137000 OS   189 A      -0.5246 ****
6013 P       8.021000   -4.743000   41.005000 P    190 G       1.1662 ****
6014 OP1     9.426000   -5.169000   40.819000 O2   190 G      -0.7760 ****
6015 OP2     7.544000   -3.604000   40.189000 O2   190 G      -0.7760 ****
6016 O5'     7.143000   -6.062000   40.779000 OS   190 G      -0.4989 ****
6017 C5'     7.110000   -7.064000   41.813000 CI   190 G       0.0558 ****
6018 H5'     6.716000   -6.627000   42.731000 H1   190 G       0.0679 ****
6019 H5''    8.119000   -7.435000   41.992000 H1   190 G       0.0679 ****
6020 C4'     6.220000   -8.220000   41.387000 CT   190 G       0.1065 ****
6021 H4'     6.466000   -9.105000   41.975000 H1   190 G       0.1174 ****
6022 O4'     4.840000   -7.912000   41.750000 OS   190 G      -0.3548 ****
6023 C1'     4.097000   -7.567000   40.591000 CT   190 G       0.0191 ****
6024 H1'     3.267000   -8.263000   40.469000 H2   190 G       0.2006 ****
6025 N9      3.426000   -6.260000   40.844000 N*   190 G       0.0492 ****
6026 C8      3.940000   -4.983000   40.746000 CP   190 G       0.1374 ****
6027 H8      4.968000   -4.836000   40.449000 H5   190 G       0.1640 ****
6028 N7      3.081000   -4.039000   41.042000 NB   190 G      -0.5709 ****
6029 C5      1.919000   -4.733000   41.357000 CB   190 G       0.1744 ****
6030 C6      0.642000   -4.256000   41.756000 C    190 G       0.4770 ****
6031 O6      0.269000   -3.095000   41.917000 O    190 G      -0.5597 ****
6032 N1     -0.251000   -5.311000   41.976000 NA   190 G      -0.4787 ****
6033 H1     -1.180000   -5.075000   42.263000 H    190 G       0.3424 ****
6034 C2      0.046000   -6.650000   41.828000 CA   190 G       0.7657 ****
6035 N2     -0.951000   -7.506000   42.088000 N2   190 G      -0.9672 ****
6036 H21    -1.887000   -7.276000   42.389000 H    190 G       0.4364 ****
6037 H22    -0.739000   -8.489000   41.990000 H    190 G       0.4364 ****
6038 N3      1.242000   -7.095000   41.452000 NC   190 G      -0.6323 ****
6039 C4      2.122000   -6.082000   41.234000 CB   190 G       0.1222 ****
6040 C3'     6.165000   -8.499000   39.884000 CT   190 G       0.2022 ****
6041 H3'     7.112000   -8.215000   39.426000 H1   190 G       0.0615 ****
6042 C2'     5.062000   -7.554000   39.404000 CT   190 G       0.0670 ****
6043 H2'     5.471000   -6.861000   38.668000 H1   190 G       0.0972 ****
6044 O2'     4.008000   -8.314000   38.807000 OH   190 G      -0.6139 ****
6045 HO2'    3.338000   -7.688000   38.520000 HO   190 G       0.4186 ****
6046 O3'     5.796000   -9.815000   39.496000 OS   190 G      -0.5246 ****
6047 P       4.193000   -8.513000   38.130000 P    191 U       1.1662 ****
6048 OP1     5.102000   -9.650000   37.863000 O2   191 U      -0.7760 ****
6049 OP2     4.439000   -7.259000   37.382000 O2   191 U      -0.7760 ****
6050 O5'     2.717000   -9.083000   37.892000 OS   191 U      -0.4989 ****
6051 C5'     2.134000   -9.947000   38.885000 CI   191 U       0.0558 ****
6052 H5'     2.073000   -9.419000   39.836000 H1   191 U       0.0679 ****
6053 H5''    2.754000  -10.836000   39.003000 H1   191 U       0.0679 ****
6054 C4'     0.737000  -10.366000   38.455000 CT   191 U       0.1065 ****
6055 H4'     0.444000  -11.266000   38.995000 H1   191 U       0.1174 ****
6056 O4'    -0.216000   -9.350000   38.893000 OS   191 U      -0.3548 ****
6057 C1'    -0.646000   -8.576000   37.783000 CT   191 U       0.0674 ****
6058 H1'    -1.727000   -8.668000   37.672000 H2   191 U       0.1824 ****
6059 N1     -0.458000   -7.089000   38.090000 N*   191 U       0.0418 ****
6060 C6      0.744000   -6.444000   37.956000 CS   191 U      -0.1126 ****
6061 H6      1.613000   -6.989000   37.618000 H4   191 U       0.2188 ****
6062 C5      0.856000   -5.129000   38.184000 CS   191 U      -0.3635 ****
6063 H5      1.822000   -4.636000   38.070000 HA   191 U       0.1811 ****
6064 C4     -0.289000   -4.349000   38.579000 C    191 U       0.5952 ****
6065 O4     -0.281000   -3.141000   38.810000 O    191 U      -0.5761 ****
6066 N3     -1.455000   -5.078000   38.690000 NA   191 U      -0.3549 ****
6067 H3     -2.350000   -4.531000   38.988000 H    191 U       0.3154 ****
6068 C2     -1.601000   -6.432000   38.462000 C    191 U       0.4687 ****
6069 O2     -2.679000   -6.990000   38.587000 O    191 U      -0.5477 ****
6070 C3'     0.511000  -10.475000   36.946000 CT   191 U       0.2022 ****
6071 H3'     1.444000  -10.753000   36.457000 H1   191 U       0.0615 ****
6072 C2'     0.136000   -9.044000   36.555000 CT   191 U       0.0670 ****
6073 H2'     0.856000   -8.665000   35.829000 H1   191 U       0.0972 ****
6074 O2'    -1.172000   -9.033000   35.977000 OH   191 U      -0.6139 ****
6075 HO2'   -1.369000   -8.123000   35.746000 HO   191 U       0.4186 ****
6076 O3'    -0.548000  -11.322000   36.523000 OS   191 U      -0.5246 ****
6077 P      -1.071000   -9.429000   35.320000 P    192 U       1.1662 ****
6078 OP1    -0.921000  -10.877000   35.053000 O2   192 U      -0.7760 ****
6079 OP2    -0.187000   -8.507000   34.572000 O2   192 U      -0.7760 ****
6080 O5'    -2.621000   -9.111000   35.082000 OS   192 U      -0.4989 ****
6081 C5'    -3.578000   -9.524000   36.075000 CI   192 U       0.0558 ****
6082 H5'    -3.344000   -9.046000   37.026000 H1   192 U       0.0679 ****
6083 H5''   -3.537000  -10.606000   36.193000 H1   192 U       0.0679 ****
6084 C4'    -4.979000   -9.121000   35.645000 CT   192 U       0.1065 ****
6085 H4'    -5.712000   -9.720000   36.185000 H1   192 U       0.1174 ****
6086 O4'    -5.232000   -7.751000   36.083000 OS   192 U      -0.3548 ****
6087 C1'    -5.177000   -6.867000   34.973000 CT   192 U       0.0674 ****
6088 H1'    -6.136000   -6.362000   34.862000 H2   192 U       0.1824 ****
6089 N1     -4.215000   -5.718000   35.280000 N*   192 U       0.0418 ****
6090 C6     -2.856000   -5.825000   35.146000 CS   192 U      -0.1126 ****
6091 H6     -2.418000   -6.753000   34.808000 H4   192 U       0.2188 ****
6092 C5     -2.051000   -4.778000   35.374000 CS   192 U      -0.3635 ****
6093 H5     -0.972000   -4.886000   35.260000 HA   192 U       0.1811 ****
6094 C4     -2.593000   -3.504000   35.769000 C    192 U       0.5952 ****
6095 O4     -1.934000   -2.491000   36.000000 O    192 U      -0.5761 ****
6096 N3     -3.968000   -3.488000   35.880000 NA   192 U      -0.3549 ****
6097 H3     -4.425000   -2.544000   36.178000 H    192 U       0.3154 ****
6098 C2     -4.822000   -4.547000   35.652000 C    192 U       0.4687 ****
6099 O2     -6.030000   -4.435000   35.777000 O    192 U      -0.5477 ****
6100 C3'    -5.229000   -9.090000   34.136000 CT   192 U       0.2022 ****
6101 H3'    -4.594000   -9.829000   33.647000 H1   192 U       0.0615 ****
6102 C2'    -4.771000   -7.684000   33.745000 CT   192 U       0.0670 ****
6103 H2'    -3.960000   -7.754000   33.019000 H1   192 U       0.0972 ****
6104 O2'    -5.866000   -6.969000   33.167000 OH   192 U      -0.6139 ****
6105 HO2'   -5.540000   -6.096000   32.936000 HO   192 U       0.4186 ****
6106 O3'    -6.578000   -9.231000   33.713000 OS   192 U      -0.5246 ****
6107 P      -5.826000   -7.272000   32.575000 P    193 G       1.1662 ****
6108 OP1    -6.446000   -8.603000   32.389000 O2   193 G      -0.7760 ****
6109 OP2    -4.631000   -6.961000   31.759000 O2   193 G      -0.7760 ****
6110 O5'    -7.008000   -6.217000   32.349000 OS   193 G      -0.4989 ****
6111 C5'    -7.995000   -6.043000   33.383000 CI   193 G       0.0558 ****
6112 H5'    -7.508000   -5.715000   34.301000 H1   193 G       0.0679 ****
6113 H5''   -8.505000   -6.990000   33.562000 H1   193 G       0.0679 ****
6114 C4'    -9.015000   -4.999000   32.957000 CT   193 G       0.1065 ****
6115 H4'    -9.925000   -5.119000   33.545000 H1   193 G       0.1174 ****
6116 O4'    -8.515000   -3.676000   33.320000 OS   193 G      -0.3548 ****
6117 C1'    -8.068000   -2.990000   32.161000 CT   193 G       0.0191 ****
6118 H1'    -8.641000   -2.070000   32.039000 H2   193 G       0.2006 ****
6119 N9     -6.681000   -2.510000   32.414000 N*   193 G       0.0492 ****
6120 C8     -5.489000   -3.199000   32.316000 CP   193 G       0.1374 ****
6121 H8     -5.488000   -4.237000   32.019000 H5   193 G       0.1640 ****
6122 N7     -4.433000   -2.481000   32.612000 NB   193 G      -0.5709 ****
6123 C5     -4.956000   -1.233000   32.927000 CB   193 G       0.1744 ****
6124 C6     -4.304000   -0.036000   33.326000 C    193 G       0.4770 ****
6125 O6     -3.102000    0.170000   33.487000 O    193 G      -0.5597 ****
6126 N1     -5.222000    0.997000   33.546000 NA   193 G      -0.4787 ****
6127 H1     -4.858000    1.883000   33.833000 H    193 G       0.3424 ****
6128 C2     -6.590000    0.891000   33.398000 CA   193 G       0.7657 ****
6129 N2     -7.297000    1.999000   33.658000 N2   193 G      -0.9672 ****
6130 H21    -6.937000    2.893000   33.959000 H    193 G       0.4364 ****
6131 H22    -8.300000    1.928000   33.560000 H    193 G       0.4364 ****
6132 N3     -7.199000   -0.230000   33.022000 NC   193 G      -0.6323 ****
6133 C4     -6.320000   -1.244000   32.804000 CB   193 G       0.1222 ****
6134 C3'    -9.283000   -4.906000   31.454000 CT   193 G       0.2022 ****
6135 H3'    -9.135000   -5.884000   30.996000 H1   193 G       0.0615 ****
6136 C2'    -8.192000   -3.947000   30.974000 CT   193 G       0.0670 ****
6137 H2'    -7.563000   -4.450000   30.238000 H1   193 G       0.0972 ****
6138 O2'    -8.796000   -2.796000   30.377000 OH   193 G      -0.6139 ****
6139 HO2'   -8.082000   -2.222000   30.090000 HO   193 G       0.4186 ****
6140 O3'   -10.533000   -4.355000   31.066000 OS   193 G      -0.5246 ****
6141 P      -9.040000   -2.951000   29.662000 P    194 A       1.1662 ****
6142 OP1   -10.296000   -3.684000   29.386000 O2   194 A      -0.7760 ****
6143 OP2    -7.833000   -3.371000   28.915000 O2   194 A      -0.7760 ****
6144 O5'    -9.389000   -1.407000   29.435000 OS   194 A      -0.4989 ****
6145 C5'   -10.163000   -0.712000   30.431000 CI   194 A       0.0558 ****
6146 H5'    -9.634000   -0.735000   31.384000 H1   194 A       0.0679 ****
6147 H5''  -11.132000   -1.197000   30.542000 H1   194 A       0.0679 ****
6148 C4'   -10.373000    0.734000   30.011000 CT   194 A       0.1065 ****
6149 H4'   -11.222000    1.150000   30.552000 H1   194 A       0.1174 ****
6150 O4'    -9.231000    1.526000   30.458000 OS   194 A      -0.3548 ****
6151 C1'    -8.399000    1.848000   29.353000 CT   194 A       0.0394 ****
6152 H1'    -8.334000    2.931000   29.250000 H2   194 A       0.2007 ****
6153 N9     -6.966000    1.446000   29.660000 N*   194 A      -0.0251 ****
6154 C8     -6.331000    0.235000   29.578000 C5   194 A       0.2006 ****
6155 H8     -6.873000   -0.638000   29.246000 H5   194 A       0.1553 ****
6156 N7     -5.064000    0.283000   29.868000 NB   194 A      -0.6073 ****
6157 C5     -4.838000    1.622000   30.164000 CB   194 A       0.0515 ****
6158 C6     -3.688000    2.323000   30.548000 CA   194 A       0.7009 ****
6159 N6     -2.489000    1.746000   30.709000 N2   194 A      -0.9019 ****
6160 H61    -1.694000    2.302000   30.987000 H    194 A       0.4115 ****
6161 H62    -2.381000    0.754000   30.550000 H    194 A       0.4115 ****
6162 N1     -3.811000    3.640000   30.763000 NC   194 A      -0.7615 ****
6163 C2     -5.003000    4.207000   30.603000 CQ   194 A       0.5875 ****
6164 H2     -5.124000    5.267000   30.771000 H5   194 A       0.0473 ****
6165 N3     -6.148000    3.654000   30.247000 NC   194 A      -0.6997 ****
6166 C4     -5.996000    2.329000   30.037000 CB   194 A       0.3053 ****
6167 C3'   -10.443000    0.985000   28.503000 CT   194 A       0.2022 ****
6168 H3'   -10.852000    0.105000   28.006000 H1   194 A       0.0615 ****
6169 C2'    -8.972000    1.151000   28.118000 CT   194 A       0.0670 ****
6170 H2'    -8.699000    0.389000   27.388000 H1   194 A       0.0972 ****
6171 O2'    -8.770000    2.448000   27.550000 OH   194 A      -0.6139 ****
6172 HO2'   -7.840000    2.513000   27.322000 HO   194 A       0.4186 ****
6173 O3'   -11.127000    2.159000   28.087000 OS   194 A      -0.5246 ****
6174 P      -9.202000    2.400000   26.852000 P    195 A       1.1662 ****
6175 OP1   -10.654000    2.463000   26.576000 O2   195 A      -0.7760 ****
6176 OP2    -8.413000    1.395000   26.105000 O2   195 A      -0.7760 ****
6177 O5'    -8.661000    3.889000   26.625000 OS   195 A      -0.4989 ****
6178 C5'    -8.936000    4.891000   27.621000 CI   195 A       0.0558 ****
6179 H5'    -8.504000    4.586000   28.574000 H1   195 A       0.0679 ****
6180 H5''  -10.015000    5.007000   27.732000 H1   195 A       0.0679 ****
6181 C4'    -8.332000    6.221000   27.201000 CT   195 A       0.1065 ****
6182 H4'    -8.822000    7.031000   27.742000 H1   195 A       0.1174 ****
6183 O4'    -6.943000    6.271000   27.648000 OS   195 A      -0.3548 ****
6184 C1'    -6.070000    6.093000   26.543000 CT   195 A       0.0394 ****
6185 H1'    -5.429000    6.969000   26.440000 H2   195 A       0.2007 ****
6186 N9     -5.080000    4.980000   26.850000 N*   195 A      -0.0251 ****
6187 C8     -5.200000    3.618000   26.768000 C5   195 A       0.2006 ****
6188 H8     -6.128000    3.177000   26.436000 H5   195 A       0.1553 ****
6189 N7     -4.109000    2.974000   27.058000 NB   195 A      -0.6073 ****
6190 C5     -3.195000    3.978000   27.354000 CB   195 A       0.0515 ****
6191 C6     -1.849000    3.947000   27.738000 CA   195 A       0.7009 ****
6192 N6     -1.152000    2.814000   27.899000 N2   195 A      -0.9019 ****
6193 H61    -0.182000    2.853000   28.177000 H    195 A       0.4115 ****
6194 H62    -1.596000    1.921000   27.740000 H    195 A       0.4115 ****
6195 N1     -1.240000    5.121000   27.953000 NC   195 A      -0.7615 ****
6196 C2     -1.937000    6.243000   27.793000 CQ   195 A       0.5875 ****
6197 H2     -1.466000    7.200000   27.961000 H5   195 A       0.0473 ****
6198 N3     -3.199000    6.396000   27.437000 NC   195 A      -0.6997 ****
6199 C4     -3.787000    5.199000   27.227000 CB   195 A       0.3053 ****
6200 C3'    -8.256000    6.471000   25.693000 CT   195 A       0.2022 ****
6201 H3'    -9.075000    5.952000   25.196000 H1   195 A       0.0615 ****
6202 C2'    -6.928000    5.816000   25.308000 CT   195 A       0.0670 ****
6203 H2'    -7.110000    5.027000   24.578000 H1   195 A       0.0972 ****
6204 O2'    -6.058000    6.798000   24.740000 OH   195 A      -0.6139 ****
6205 HO2'   -5.240000    6.350000   24.512000 HO   195 A       0.4186 ****
6206 O3'    -8.197000    7.828000   25.277000 OS   195 A      -0.5246 ****
6207 P      -6.379000    6.793000   24.145000 P    196 G       1.1662 ****
6208 OP1    -7.609000    7.594000   23.959000 O2   196 G      -0.7760 ****
6209 OP2    -6.239000    5.566000   23.329000 O2   196 G      -0.7760 ****
6210 O5'    -5.168000    7.814000   23.919000 OS   196 G      -0.4989 ****
6211 C5'    -4.857000    8.767000   24.953000 CI   196 G       0.0558 ****
6212 H5'    -4.600000    8.238000   25.871000 H1   196 G       0.0679 ****
6213 H5''   -5.722000    9.405000   25.132000 H1   196 G       0.0679 ****
6214 C4'    -3.679000    9.629000   24.527000 CT   196 G       0.1065 ****
6215 H4'    -3.669000   10.547000   25.115000 H1   196 G       0.1174 ****
6216 O4'    -2.440000    8.948000   24.890000 OS   196 G      -0.3548 ****
6217 C1'    -1.823000    8.409000   23.731000 CT   196 G       0.0191 ****
6218 H1'    -0.832000    8.846000   23.609000 H2   196 G       0.2006 ****
6219 N9     -1.544000    6.968000   23.984000 N*   196 G       0.0492 ****
6220 C8     -2.394000    5.885000   23.886000 CP   196 G       0.1374 ****
6221 H8     -3.422000    6.030000   23.589000 H5   196 G       0.1640 ****
6222 N7     -1.832000    4.739000   24.182000 NB   196 G      -0.5709 ****
6223 C5     -0.522000    5.080000   24.497000 CB   196 G       0.1744 ****
6224 C6      0.571000    4.266000   24.896000 C    196 G       0.4770 ****
6225 O6      0.605000    3.047000   25.057000 O    196 G      -0.5597 ****
6226 N1      1.723000    5.030000   25.116000 NA   196 G      -0.4787 ****
6227 H1      2.549000    4.544000   25.403000 H    196 G       0.3424 ****
6228 C2      1.811000    6.399000   24.968000 CA   196 G       0.7657 ****
6229 N2      3.008000    6.943000   25.228000 N2   196 G      -0.9672 ****
6230 H21     3.842000    6.460000   25.529000 H    196 G       0.4364 ****
6231 H22     3.078000    7.946000   25.130000 H    196 G       0.4364 ****
6232 N3      0.787000    7.160000   24.592000 NC   196 G      -0.6323 ****
6233 C4     -0.341000    6.432000   24.374000 CB   196 G       0.1222 ****
6234 C3'    -3.549000    9.882000   23.024000 CT   196 G       0.2022 ****
6235 H3'    -4.538000    9.873000   22.566000 H1   196 G       0.0615 ****
6236 C2'    -2.753000    8.666000   22.544000 CT   196 G       0.0670 ****
6237 H2'    -3.339000    8.115000   21.808000 H1   196 G       0.0972 ****
6238 O2'    -1.529000    9.102000   21.947000 OH   196 G      -0.6139 ****
6239 HO2'   -1.061000    8.314000   21.660000 HO   196 G       0.4186 ****
6240 O3'    -2.827000   11.042000   22.636000 OS   196 G      -0.5246 ****
6241 P      -1.651000    9.345000   21.270000 P    197 U       1.1662 ****
6242 OP1    -2.207000   10.691000   21.003000 O2   197 U      -0.7760 ****
6243 OP2    -2.237000    8.210000   20.522000 O2   197 U      -0.7760 ****
6244 O5'    -0.075000    9.480000   21.032000 OS   197 U      -0.4989 ****
6245 C5'     0.726000   10.148000   22.025000 CI   197 U       0.0558 ****
6246 H5'     0.638000    9.623000   22.976000 H1   197 U       0.0679 ****
6247 H5''    0.379000   11.174000   22.143000 H1   197 U       0.0679 ****
6248 C4'     2.184000   10.160000   21.595000 CT   197 U       0.1065 ****
6249 H4'     2.716000   10.942000   22.135000 H1   197 U       0.1174 ****
6250 O4'     2.815000    8.918000   22.033000 OS   197 U      -0.3548 ****
6251 C1'     3.013000    8.055000   20.923000 CT   197 U       0.0674 ****
6252 H1'     4.076000    7.842000   20.812000 H2   197 U       0.1824 ****
6253 N1      2.417000    6.680000   21.230000 N*   197 U       0.0418 ****
6254 C6      1.084000    6.396000   21.096000 CS   197 U      -0.1126 ****
6255 H6      0.400000    7.161000   20.758000 H4   197 U       0.2188 ****
6256 C5      0.609000    5.164000   21.324000 CS   197 U      -0.3635 ****
6257 H5     -0.456000    4.961000   21.210000 HA   197 U       0.1811 ****
6258 C4      1.491000    4.096000   21.719000 C    197 U       0.5952 ****
6259 O4      1.147000    2.938000   21.950000 O    197 U      -0.5761 ****
6260 N3      2.814000    4.471000   21.830000 NA   197 U      -0.3549 ****
6261 H3      3.520000    3.696000   22.128000 H    197 U       0.3154 ****
6262 C2      3.332000    5.730000   21.602000 C    197 U       0.4687 ****
6263 O2      4.522000    5.965000   21.727000 O    197 U      -0.5477 ****
6264 C3'     2.432000   10.201000   20.086000 CT   197 U       0.2022 ****
6265 H3'     1.613000   10.729000   19.597000 H1   197 U       0.0615 ****
6266 C2'     2.392000    8.723000   19.695000 CT   197 U       0.0670 ****
6267 H2'     1.595000    8.560000   18.969000 H1   197 U       0.0972 ****
6268 O2'     3.645000    8.348000   19.117000 OH   197 U      -0.6139 ****
6269 HO2'    3.581000    7.418000   18.886000 HO   197 U       0.4186 ****
6270 O3'     3.685000   10.719000   19.663000 OS   197 U      -0.5246 ****
6271 P       3.673000    8.772000   18.422000 P    198 A       1.1662 ****
6272 OP1     3.939000   10.201000   18.146000 O2   198 A      -0.7760 ****
6273 OP2     2.567000    8.132000   17.675000 O2   198 A      -0.7760 ****
6274 O5'     5.070000    8.026000   18.195000 OS   198 A      -0.4989 ****
6275 C5'     6.102000    8.158000   19.191000 CI   198 A       0.0558 ****
6276 H5'     5.739000    7.773000   20.144000 H1   198 A       0.0679 ****
6277 H5''    6.368000    9.209000   19.302000 H1   198 A       0.0679 ****
6278 C4'     7.333000    7.372000   18.771000 CT   198 A       0.1065 ****
6279 H4'     8.204000    7.744000   19.312000 H1   198 A       0.1174 ****
6280 O4'     7.187000    5.990000   19.218000 OS   198 A      -0.3548 ****
6281 C1'     6.887000    5.151000   18.113000 CT   198 A       0.0394 ****
6282 H1'     7.664000    4.393000   18.010000 H2   198 A       0.2007 ****
6283 N9      5.646000    4.328000   18.420000 N*   198 A      -0.0251 ****
6284 C8      4.315000    4.639000   18.338000 C5   198 A       0.2006 ****
6285 H8      4.008000    5.620000   18.006000 H5   198 A       0.1553 ****
6286 N7      3.523000    3.649000   18.628000 NB   198 A      -0.6073 ****
6287 C5      4.389000    2.602000   18.924000 CB   198 A       0.0515 ****
6288 C6      4.168000    1.274000   19.308000 CA   198 A       0.7009 ****
6289 N6      2.948000    0.744000   19.469000 N2   198 A      -0.9019 ****
6290 H61     2.850000   -0.222000   19.747000 H    198 A       0.4115 ****
6291 H62     2.126000    1.309000   19.310000 H    198 A       0.4115 ****
6292 N1      5.245000    0.506000   19.523000 NC   198 A      -0.7615 ****
6293 C2      6.453000    1.038000   19.363000 CQ   198 A       0.5875 ****
6294 H2      7.335000    0.437000   19.531000 H5   198 A       0.0473 ****
6295 N3      6.783000    2.266000   19.007000 NC   198 A      -0.6997 ****
6296 C4      5.681000    3.017000   18.797000 CB   198 A       0.3053 ****
6297 C3'     7.570000    7.262000   17.263000 CT   198 A       0.2022 ****
6298 H3'     7.171000    8.146000   16.766000 H1   198 A       0.0615 ****
6299 C2'     6.734000    6.040000   16.878000 CT   198 A       0.0670 ****
6300 H2'     5.979000    6.331000   16.148000 H1   198 A       0.0972 ****
6301 O2'     7.584000    5.040000   16.310000 OH   198 A      -0.6139 ****
6302 HO2'    7.025000    4.293000   16.082000 HO   198 A       0.4186 ****
6303 O3'     8.904000    7.012000   16.847000 OS   198 A      -0.5246 ****
6304 P       7.809000    5.392000   15.650000 P    199 U       1.1662 ****
6305 OP1     8.802000    6.457000   15.383000 O2   199 U      -0.7760 ****
6306 OP2     6.533000    5.452000   14.902000 O2   199 U      -0.7760 ****
6307 O5'     8.588000    4.015000   15.412000 OS   199 U      -0.4989 ****
6308 C5'     9.529000    3.564000   16.405000 CI   199 U       0.0558 ****
6309 H5'     9.015000    3.426000   17.356000 H1   199 U       0.0679 ****
6310 H5''   10.318000    4.307000   16.523000 H1   199 U       0.0679 ****
6311 C4'    10.147000    2.244000   15.975000 CT   199 U       0.1065 ****
6312 H4'    11.080000    2.085000   16.515000 H1   199 U       0.1174 ****
6313 O4'     9.281000    1.153000   16.413000 OS   199 U      -0.3548 ****
6314 C1'     8.578000    0.614000   15.303000 CT   199 U       0.0674 ****
6315 H1'     8.827000   -0.442000   15.192000 H2   199 U       0.1824 ****
6316 N1      7.080000    0.583000   15.610000 N*   199 U       0.0418 ****
6317 C6      6.267000    1.677000   15.476000 CS   199 U      -0.1126 ****
6318 H6      6.678000    2.617000   15.138000 H4   199 U       0.2188 ****
6319 C5      4.949000    1.596000   15.704000 CS   199 U      -0.3635 ****
6320 H5      4.321000    2.479000   15.590000 HA   199 U       0.1811 ****
6321 C4      4.345000    0.350000   16.099000 C    199 U       0.5952 ****
6322 O4      3.149000    0.180000   16.330000 O    199 U      -0.5761 ****
6323 N3      5.237000   -0.697000   16.210000 NA   199 U      -0.3549 ****
6324 H3      4.826000   -1.662000   16.508000 H    199 U       0.3154 ****
6325 C2      6.597000   -0.644000   15.982000 C    199 U       0.4687 ****
6326 O2      7.306000   -1.629000   16.107000 O    199 U      -0.5477 ****
6327 C3'    10.288000    2.035000   14.466000 CT   199 U       0.2022 ****
6328 H3'    10.426000    2.999000   13.977000 H1   199 U       0.0615 ****
6329 C2'     8.927000    1.456000   14.075000 CT   199 U       0.0670 ****
6330 H2'     8.447000    2.113000   13.349000 H1   199 U       0.0972 ****
6331 O2'     9.108000    0.160000   13.497000 OH   199 U      -0.6139 ****
6332 HO2'    8.236000   -0.168000   13.266000 HO   199 U       0.4186 ****
6333 O3'    11.280000    1.112000   14.043000 OS   199 U      -0.5246 ****
6334 P       9.504000    0.312000   12.802000 P    200 A3      1.1662 ****
6335 OP1    10.915000    0.665000   12.526000 O2   200 A3     -0.7760 ****
6336 OP2     8.462000    1.052000   12.055000 O2   200 A3     -0.7760 ****
6337 O5'     9.408000   -1.269000   12.575000 OS   200 A3     -0.4989 ****
6338 C5'     9.958000   -2.152000   13.571000 CI   200 A3      0.0558 ****
6339 H5'     9.456000   -1.982000   14.524000 H1   200 A3      0.0679 ****
6340 H5''   11.024000   -1.956000   13.682000 H1   200 A3      0.0679 ****
6341 C4'     9.756000   -3.599000   13.151000 CT   200 A3      0.1065 ****
6342 H4'    10.456000   -4.235000   13.692000 H1   200 A3      0.1174 ****
6343 O4'     8.438000   -4.041000   13.598000 OS   200 A3     -0.3548 ****
6344 C1'     7.550000   -4.118000   12.493000 CT   200 A3      0.0394 ****
6345 H1'     7.185000   -5.140000   12.390000 H2   200 A3      0.2007 ****
6346 N9      6.285000   -3.332000   12.800000 N*   200 A3     -0.0251 ****
6347 C8      6.014000   -1.992000   12.718000 C5   200 A3      0.2006 ****
6348 H8      6.778000   -1.305000   12.386000 H5   200 A3      0.1553 ****
6349 N7      4.784000   -1.685000   13.008000 NB   200 A3     -0.6073 ****
6350 C5      4.193000   -2.907000   13.304000 CB   200 A3      0.0515 ****
6351 C6      2.893000   -3.259000   13.688000 CA   200 A3      0.7009 ****
6352 N6      1.903000   -2.371000   13.849000 N2   200 A3     -0.9019 ****
6353 H61     0.984000   -2.684000   14.127000 H    200 A3      0.4115 ****
6354 H62     2.076000   -1.388000   13.690000 H    200 A3      0.4115 ****
6355 N1      2.644000   -4.558000   13.903000 NC   200 A3     -0.7615 ****
6356 C2      3.631000   -5.435000   13.743000 CQ   200 A3      0.5875 ****
6357 H2      3.451000   -6.487000   13.911000 H5   200 A3      0.0473 ****
6358 N3      4.884000   -5.224000   13.387000 NC   200 A3     -0.6997 ****
6359 C4      5.108000   -3.910000   13.177000 CB   200 A3      0.3053 ****
6360 C3'     9.754000   -3.860000   11.643000 CT   200 A3      0.2022 ****
6361 H3'    10.392000   -3.129000   11.146000 H1   200 A3      0.0615 ****
6362 C2'     8.295000   -3.608000   11.258000 CT   200 A3      0.0670 ****
6363 H2'     8.245000   -2.801000   10.528000 H1   200 A3      0.0972 ****
6364 O2'     7.739000   -4.798000   10.690000 OH   200 A3     -0.6139 ****
6365 HO2'    6.828000   -4.601000   10.462000 HO   200 A3      0.4186 ****
6366 O3'    10.083000   -5.177000   11.227000 OH   200 A3     -0.6541 ****
6367 HO3'   10.074000   -5.316000   10.278000 HO   200 A3      0.4376 ****
@<TRIPOS>BOND
    1    32    33 1
    2    30    31 1
    3    28    29 1
    4    28    30 1
    5    26    27 1
    6    26    28 1
    7    26    32 1
    8    24    25 1
    9    21    22 1
   10    21    23 1
   11    20    21 1
   12    20    24 1
   13    18    19 1
   14    18    20 1
   15    16    17 1
   16    16    18 1
   17    15    16 1
   18    15    25 1
   19    14    15 1
   20    12    13 1
   21    12    14 1
   22    11    12 1
   23    11    25 1
   24     9    10 1
   25     9    11 1
   26     9    28 1
   27     8     9 1
   28     6     7 1
   29     6     8 1
   30     6    26 1
   31     3     4 1
   32     3     5 1
   33     3     6 1
   34     2     3 1
   35     1     2 1
   36    66    67 1
   37    64    65 1
   38    62    63 1
   39    62    64 1
   40    60    61 1
   41    60    62 1
   42    60    66 1
   43    58    59 1
   44    55    56 1
   45    55    57 1
   46    54    55 1
   47    54    58 1
   48    52    53 1
   49    52    54 1
   50    50    51 1
   51    50    52 1
   52    49    50 1
   53    49    59 1
   54    48    49 1
   55    46    47 1
   56    46    48 1
   57    45    46 1
   58    45    59 1
   59    43    44 1
   60    43    45 1
   61    43    62 1
   62    42    43 1
   63    40    41 1
   64    40    42 1
   65    40    60 1
   66    37    38 1
   67    37    39 1
   68    37    40 1
   69    36    37 1
   70    33    34 1
   71    33    35 1
   72    33    36 1
   73    96    97 1
   74    94    95 1
   75    92    93 1
   76    92    94 1
   77    90    91 1
   78    90    92 1
   79    90    96 1
   80    88    89 1
   81    86    87 1
   82    86    88 1
   83    84    85 1
   84    84    86 1
   85    82    83 1
   86    82    84 1
   87    80    81 1
   88    80    82 1
   89    79    80 1
   90    79    88 1
   91    77    78 1
   92    77    79 1
   93    77    92 1
   94    76    77 1
   95    74    75 1
   96    74    76 1
   97    74    90 1
   98    71    72 1
   99    71    73 1
  100    71    74 1
  101    70    71 1
  102    67    68 1
  103    67    69 1
  104    67    70 1
  105   127   128 1
  106   125   126 1
  107   123   124 1
  108   123   125 1
  109   121   122 1
  110   121   123 1
  111   121   127 1
  112   119   120 1
  113   118   119 1
  114   115   116 1
  115   115   117 1
  116   114   115 1
  117   114   118 1
  118   112   113 1
  119   112   114 1
  120   110   111 1
  121   110   112 1
  122   109   110 1
  123   109   119 1
  124   107   108 1
  125   107   109 1
  126   107   123 1
  127   106   107 1
  128   104   105 1
  129   104   106 1
  130   104   121 1
  131   101   102 1
  132   101   103 1
  133   101   104 1
  134   100   101 1
  135    97    98 1
  136    97    99 1
  137    97   100 1
  138   158   159 1
  139   156   157 1
  140   154   155 1
  141   154   156 1
  142   152   153 1
  143   152   154 1
  144   152   158 1
  145   150   151 1
  146   149   150 1
  147   146   147 1
  148   146   148 1
  149   145   146 1
  150   145   149 1
  151   143   144 1
  152   143   145 1
  153   141   142 1
  154   141   143 1
  155   140   141 1
  156   140   150 1
  157   138   139 1
  158   138   140 1
  159   138   154 1
  160   137   138 1
  161   135   136 1
  162   135   137 1
  163   135   152 1
  164   132   133 1
  165   132   134 1
  166   132   135 1
  167   131   132 1
  168   128   129 1
  169   128   130 1
  170   128   131 1
  171   188   189 1
  172   186   187 1
  173   184   185 1
  174   184   186 1
  175   182   183 1
  176   182   184 1
  177   182   188 1
  178   180   181 1
  179   178   179 1
  180   178   180 1
  181   176   177 1
  182   176   178 1
  183   174   175 1
  184   174   176 1
  185   172   173 1
  186   172   174 1
  187   171   172 1
  188   171   180 1
  189   169   170 1
  190   169   171 1
  191   169   184 1
  192   168   169 1
  193   166   167 1
  194   166   168 1
  195   166   182 1
  196   163   164 1
  197   163   165 1
  198   163   166 1
  199   162   163 1
  200   159   160 1
  201   159   161 1
  202   159   162 1
  203   221   222 1
  204   219   220 1
  205   217   218 1
  206   217   219 1
  207   215   216 1
  208   215   217 1
  209   215   221 1
  210   213   214 1
  211   211   212 1
  212   211   213 1
  213   210   211 1
  214   207   208 1
  215   207   209 1
  216   206   207 1
  217   206   210 1
  218   205   206 1
  219   205   214 1
  220   204   205 1
  221   202   203 1
  222   202   204 1
  223   201   202 1
  224   201   214 1
  225   199   200 1
  226   199   201 1
  227   199   217 1
  228   198   199 1
  229   196   197 1
  230   196   198 1
  231   196   215 1
  232   193   194 1
  233   193   195 1
  234   193   196 1
  235   192   193 1
  236   189   190 1
  237   189   191 1
  238   189   192 1
  239   251   252 1
  240   249   250 1
  241   247   248 1
  242   247   249 1
  243   245   246 1
  244   245   247 1
  245   245   251 1
  246   243   244 1
  247   241   242 1
  248   241   243 1
  249   239   240 1
  250   239   241 1
  251   237   238 1
  252   237   239 1
  253   235   236 1
  254   235   237 1
  255   234   235 1
  256   234   243 1
  257   232   233 1
  258   232   234 1
  259   232   247 1
  260   231   232 1
  261   229   230 1
  262   229   231 1
  263   229   245 1
  264   226   227 1
  265   226   228 1
  266   226   229 1
  267   225   226 1
  268   222   223 1
  269   222   224 1
  270   222   225 1
  271   284   285 1
  272   282   283 1
  273   280   281 1
  274   280   282 1
  275   278   279 1
  276   278   280 1
  277   278   284 1
  278   276   277 1
  279   274   275 1
  280   274   276 1
  281   273   274 1
  282   270   271 1
  283   270   272 1
  284   269   270 1
  285   269   273 1
  286   268   269 1
  287   268   277 1
  288   267   268 1
  289   265   266 1
  290   265   267 1
  291   264   265 1
  292   264   277 1
  293   262   263 1
  294   262   264 1
  295   262   280 1
  296   261   262 1
  297   259   260 1
  298   259   261 1
  299   259   278 1
  300   256   257 1
  301   256   258 1
  302   256   259 1
  303   255   256 1
  304   252   253 1
  305   252   254 1
  306   252   255 1
  307   315   316 1
  308   313   314 1
  309   311   312 1
  310   311   313 1
  311   309   310 1
  312   309   311 1
  313   309   315 1
  314   307   308 1
  315   306   307 1
  316   303   304 1
  317   303   305 1
  318   302   303 1
  319   302   306 1
  320   300   301 1
  321   300   302 1
  322   298   299 1
  323   298   300 1
  324   297   298 1
  325   297   307 1
  326   295   296 1
  327   295   297 1
  328   295   311 1
  329   294   295 1
  330   292   293 1
  331   292   294 1
  332   292   309 1
  333   289   290 1
  334   289   291 1
  335   289   292 1
  336   288   289 1
  337   285   286 1
  338   285   287 1
  339   285   288 1
  340   345   346 1
  341   343   344 1
  342   341   342 1
  343   341   343 1
  344   339   340 1
  345   339   341 1
  346   339   345 1
  347   337   338 1
  348   335   336 1
  349   335   337 1
  350   333   334 1
  351   333   335 1
  352   331   332 1
  353   331   333 1
  354   329   330 1
  355   329   331 1
  356   328   329 1
  357   328   337 1
  358   326   327 1
  359   326   328 1
  360   326   341 1
  361   325   326 1
  362   323   324 1
  363   323   325 1
  364   323   339 1
  365   320   321 1
  366   320   322 1
  367   320   323 1
  368   319   320 1
  369   316   317 1
  370   316   318 1
  371   316   319 1
  372   375   376 1
  373   373   374 1
  374   371   372 1
  375   371   373 1
  376   369   370 1
  377   369   371 1
  378   369   375 1
  379   367   368 1
  380   365   366 1
  381   365   367 1
  382   363   364 1
  383   363   365 1
  384   361   362 1
  385   361   363 1
  386   359   360 1
  387   359   361 1
  388   358   359 1
  389   358   367 1
  390   356   357 1
  391   356   358 1
  392   356   371 1
  393   355   356 1
  394   353   354 1
  395   353   355 1
  396   353   369 1
  397   350   351 1
  398   350   352 1
  399   350   353 1
  400   349   350 1
  401   346   347 1
  402   346   348 1
  403   346   349 1
  404   406   407 1
  405   404   405 1
  406   402   403 1
  407   402   404 1
  408   400   401 1
  409   400   402 1
  410   400   406 1
  411   398   399 1
  412   397   398 1
  413   394   395 1
  414   394   396 1
  415   393   394 1
  416   393   397 1
  417   391   392 1
  418   391   393 1
  419   389   390 1
  420   389   391 1
  421   388   389 1
  422   388   398 1
  423   386   387 1
  424   386   388 1
  425   386   402 1
  426   385   386 1
  427   383   384 1
  428   383   385 1
  429   383   400 1
  430   380   381 1
  431   380   382 1
  432   380   383 1
  433   379   380 1
  434   376   377 1
  435   376   378 1
  436   376   379 1
  437   439   440 1
  438   437   438 1
  439   435   436 1
  440   435   437 1
  441   433   434 1
  442   433   435 1
  443   433   439 1
  444   431   432 1
  445   429   430 1
  446   429   431 1
  447   428   429 1
  448   425   426 1
  449   425   427 1
  450   424   425 1
  451   424   428 1
  452   423   424 1
  453   423   432 1
  454   422   423 1
  455   420   421 1
  456   420   422 1
  457   419   420 1
  458   419   432 1
  459   417   418 1
  460   417   419 1
  461   417   435 1
  462   416   417 1
  463   414   415 1
  464   414   416 1
  465   414   433 1
  466   411   412 1
  467   411   413 1
  468   411   414 1
  469   410   411 1
  470   407   408 1
  471   407   409 1
  472   407   410 1
  473   472   473 1
  474   470   471 1
  475   468   469 1
  476   468   470 1
  477   466   467 1
  478   466   468 1
  479   466   472 1
  480   464   465 1
  481   462   463 1
  482   462   464 1
  483   461   462 1
  484   458   459 1
  485   458   460 1
  486   457   458 1
  487   457   461 1
  488   456   457 1
  489   456   465 1
  490   455   456 1
  491   453   454 1
  492   453   455 1
  493   452   453 1
  494   452   465 1
  495   450   451 1
  496   450   452 1
  497   450   468 1
  498   449   450 1
  499   447   448 1
  500   447   449 1
  501   447   466 1
  502   444   445 1
  503   444   446 1
  504   444   447 1
  505   443   444 1
  506   440   441 1
  507   440   442 1
  508   440   443 1
  509   503   504 1
  510   501   502 1
  511   499   500 1
  512   499   501 1
  513   497   498 1
  514   497   499 1
  515   497   503 1
  516   495   496 1
  517   494   495 1
  518   491   492 1
  519   491   493 1
  520   490   491 1
  521   490   494 1
  522   488   489 1
  523   488   490 1
  524   486   487 1
  525   486   488 1
  526   485   486 1
  527   485   495 1
  528   483   484 1
  529   483   485 1
  530   483   499 1
  531   482   483 1
  532   480   481 1
  533   480   482 1
  534   480   497 1
  535   477   478 1
  536   477   479 1
  537   477   480 1
  538   476   477 1
  539   473   474 1
  540   473   475 1
  541   473   476 1
  542   533   534 1
  543   531   532 1
  544   529   530 1
  545   529   531 1
  546   527   528 1
  547   527   529 1
  548   527   533 1
  549   525   526 1
  550   523   524 1
  551   523   525 1
  552   521   522 1
  553   521   523 1
  554   519   520 1
  555   519   521 1
  556   517   518 1
  557   517   519 1
  558   516   517 1
  559   516   525 1
  560   514   515 1
  561   514   516 1
  562   514   529 1
  563   513   514 1
  564   511   512 1
  565   511   513 1
  566   511   527 1
  567   508   509 1
  568   508   510 1
  569   508   511 1
  570   507   508 1
  571   504   505 1
  572   504   506 1
  573   504   507 1
  574   567   568 1
  575   565   566 1
  576   563   564 1
  577   563   565 1
  578   561   562 1
  579   561   563 1
  580   561   567 1
  581   559   560 1
  582   556   557 1
  583   556   558 1
  584   555   556 1
  585   555   559 1
  586   553   554 1
  587   553   555 1
  588   551   552 1
  589   551   553 1
  590   550   551 1
  591   550   560 1
  592   549   550 1
  593   547   548 1
  594   547   549 1
  595   546   547 1
  596   546   560 1
  597   544   545 1
  598   544   546 1
  599   544   563 1
  600   543   544 1
  601   541   542 1
  602   541   543 1
  603   541   561 1
  604   538   539 1
  605   538   540 1
  606   538   541 1
  607   537   538 1
  608   534   535 1
  609   534   536 1
  610   534   537 1
  611   597   598 1
  612   595   596 1
  613   593   594 1
  614   593   595 1
  615   591   592 1
  616   591   593 1
  617   591   597 1
  618   589   590 1
  619   587   588 1
  620   587   589 1
  621   585   586 1
  622   585   587 1
  623   583   584 1
  624   583   585 1
  625   581   582 1
  626   581   583 1
  627   580   581 1
  628   580   589 1
  629   578   579 1
  630   578   580 1
  631   578   593 1
  632   577   578 1
  633   575   576 1
  634   575   577 1
  635   575   591 1
  636   572   573 1
  637   572   574 1
  638   572   575 1
  639   571   572 1
  640   568   569 1
  641   568   570 1
  642   568   571 1
  643   627   628 1
  644   625   626 1
  645   623   624 1
  646   623   625 1
  647   621   622 1
  648   621   623 1
  649   621   627 1
  650   619   620 1
  651   617   618 1
  652   617   619 1
  653   615   616 1
  654   615   617 1
  655   613   614 1
  656   613   615 1
  657   611   612 1
  658   611   613 1
  659   610   611 1
  660   610   619 1
  661   608   609 1
  662   608   610 1
  663   608   623 1
  664   607   608 1
  665   605   606 1
  666   605   607 1
  667   605   621 1
  668   602   603 1
  669   602   604 1
  670   602   605 1
  671   601   602 1
  672   598   599 1
  673   598   600 1
  674   598   601 1
  675   660   661 1
  676   658   659 1
  677   656   657 1
  678   656   658 1
  679   654   655 1
  680   654   656 1
  681   654   660 1
  682   652   653 1
  683   650   651 1
  684   650   652 1
  685   649   650 1
  686   646   647 1
  687   646   648 1
  688   645   646 1
  689   645   649 1
  690   644   645 1
  691   644   653 1
  692   643   644 1
  693   641   642 1
  694   641   643 1
  695   640   641 1
  696   640   653 1
  697   638   639 1
  698   638   640 1
  699   638   656 1
  700   637   638 1
  701   635   636 1
  702   635   637 1
  703   635   654 1
  704   632   633 1
  705   632   634 1
  706   632   635 1
  707   631   632 1
  708   628   629 1
  709   628   630 1
  710   628   631 1
  711   693   694 1
  712   691   692 1
  713   689   690 1
  714   689   691 1
  715   687   688 1
  716   687   689 1
  717   687   693 1
  718   685   686 1
  719   683   684 1
  720   683   685 1
  721   682   683 1
  722   679   680 1
  723   679   681 1
  724   678   679 1
  725   678   682 1
  726   677   678 1
  727   677   686 1
  728   676   677 1
  729   674   675 1
  730   674   676 1
  731   673   674 1
  732   673   686 1
  733   671   672 1
  734   671   673 1
  735   671   689 1
  736   670   671 1
  737   668   669 1
  738   668   670 1
  739   668   687 1
  740   665   666 1
  741   665   667 1
  742   665   668 1
  743   664   665 1
  744   661   662 1
  745   661   663 1
  746   661   664 1
  747   723   724 1
  748   721   722 1
  749   719   720 1
  750   719   721 1
  751   717   718 1
  752   717   719 1
  753   717   723 1
  754   715   716 1
  755   713   714 1
  756   713   715 1
  757   711   712 1
  758   711   713 1
  759   709   710 1
  760   709   711 1
  761   707   708 1
  762   707   709 1
  763   706   707 1
  764   706   715 1
  765   704   705 1
  766   704   706 1
  767   704   719 1
  768   703   704 1
  769   701   702 1
  770   701   703 1
  771   701   717 1
  772   698   699 1
  773   698   700 1
  774   698   701 1
  775   697   698 1
  776   694   695 1
  777   694   696 1
  778   694   697 1
  779   753   754 1
  780   751   752 1
  781   749   750 1
  782   749   751 1
  783   747   748 1
  784   747   749 1
  785   747   753 1
  786   745   746 1
  787   743   744 1
  788   743   745 1
  789   741   742 1
  790   741   743 1
  791   739   740 1
  792   739   741 1
  793   737   738 1
  794   737   739 1
  795   736   737 1
  796   736   745 1
  797   734   735 1
  798   734   736 1
  799   734   749 1
  800   733   734 1
  801   731   732 1
  802   731   733 1
  803   731   747 1
  804   728   729 1
  805   728   730 1
  806   728   731 1
  807   727   728 1
  808   724   725 1
  809   724   726 1
  810   724   727 1
  811   783   784 1
  812   781   782 1
  813   779   780 1
  814   779   781 1
  815   777   778 1
  816   777   779 1
  817   777   783 1
  818   775   776 1
  819   773   774 1
  820   773   775 1
  821   771   772 1
  822   771   773 1
  823   769   770 1
  824   769   771 1
  825   767   768 1
  826   767   769 1
  827   766   767 1
  828   766   775 1
  829   764   765 1
  830   764   766 1
  831   764   779 1
  832   763   764 1
  833   761   762 1
  834   761   763 1
  835   761   777 1
  836   758   759 1
  837   758   760 1
  838   758   761 1
  839   757   758 1
  840   754   755 1
  841   754   756 1
  842   754   757 1
  843   814   815 1
  844   812   813 1
  845   810   811 1
  846   810   812 1
  847   808   809 1
  848   808   810 1
  849   808   814 1
  850   806   807 1
  851   805   806 1
  852   802   803 1
  853   802   804 1
  854   801   802 1
  855   801   805 1
  856   799   800 1
  857   799   801 1
  858   797   798 1
  859   797   799 1
  860   796   797 1
  861   796   806 1
  862   794   795 1
  863   794   796 1
  864   794   810 1
  865   793   794 1
  866   791   792 1
  867   791   793 1
  868   791   808 1
  869   788   789 1
  870   788   790 1
  871   788   791 1
  872   787   788 1
  873   784   785 1
  874   784   786 1
  875   784   787 1
  876   844   845 1
  877   842   843 1
  878   840   841 1
  879   840   842 1
  880   838   839 1
  881   838   840 1
  882   838   844 1
  883   836   837 1
  884   834   835 1
  885   834   836 1
  886   832   833 1
  887   832   834 1
  888   830   831 1
  889   830   832 1
  890   828   829 1
  891   828   830 1
  892   827   828 1
  893   827   836 1
  894   825   826 1
  895   825   827 1
  896   825   840 1
  897   824   825 1
  898   822   823 1
  899   822   824 1
  900   822   838 1
  901   819   820 1
  902   819   821 1
  903   819   822 1
  904   818   819 1
  905   815   816 1
  906   815   817 1
  907   815   818 1
  908   878   879 1
  909   876   877 1
  910   874   875 1
  911   874   876 1
  912   872   873 1
  913   872   874 1
  914   872   878 1
  915   870   871 1
  916   867   868 1
  917   867   869 1
  918   866   867 1
  919   866   870 1
  920   864   865 1
  921   864   866 1
  922   862   863 1
  923   862   864 1
  924   861   862 1
  925   861   871 1
  926   860   861 1
  927   858   859 1
  928   858   860 1
  929   857   858 1
  930   857   871 1
  931   855   856 1
  932   855   857 1
  933   855   874 1
  934   854   855 1
  935   852   853 1
  936   852   854 1
  937   852   872 1
  938   849   850 1
  939   849   851 1
  940   849   852 1
  941   848   849 1
  942   845   846 1
  943   845   847 1
  944   845   848 1
  945   909   910 1
  946   907   908 1
  947   905   906 1
  948   905   907 1
  949   903   904 1
  950   903   905 1
  951   903   909 1
  952   901   902 1
  953   900   901 1
  954   897   898 1
  955   897   899 1
  956   896   897 1
  957   896   900 1
  958   894   895 1
  959   894   896 1
  960   892   893 1
  961   892   894 1
  962   891   892 1
  963   891   901 1
  964   889   890 1
  965   889   891 1
  966   889   905 1
  967   888   889 1
  968   886   887 1
  969   886   888 1
  970   886   903 1
  971   883   884 1
  972   883   885 1
  973   883   886 1
  974   882   883 1
  975   879   880 1
  976   879   881 1
  977   879   882 1
  978   940   941 1
  979   938   939 1
  980   936   937 1
  981   936   938 1
  982   934   935 1
  983   934   936 1
  984   934   940 1
  985   932   933 1
  986   931   932 1
  987   928   929 1
  988   928   930 1
  989   927   928 1
  990   927   931 1
  991   925   926 1
  992   925   927 1
  993   923   924 1
  994   923   925 1
  995   922   923 1
  996   922   932 1
  997   920   921 1
  998   920   922 1
  999   920   936 1
 1000   919   920 1
 1001   917   918 1
 1002   917   919 1
 1003   917   934 1
 1004   914   915 1
 1005   914   916 1
 1006   914   917 1
 1007   913   914 1
 1008   910   911 1
 1009   910   912 1
 1010   910   913 1
 1011   974   975 1
 1012   972   973 1
 1013   970   971 1
 1014   970   972 1
 1015   968   969 1
 1016   968   970 1
 1017   968   974 1
 1018   966   967 1
 1019   963   964 1
 1020   963   965 1
 1021   962   963 1
 1022   962   966 1
 1023   960   961 1
 1024   960   962 1
 1025   958   959 1
 1026   958   960 1
 1027   957   958 1
 1028   957   967 1
 1029   956   957 1
 1030   954   955 1
 1031   954   956 1
 1032   953   954 1
 1033   953   967 1
 1034   951   952 1
 1035   951   953 1
 1036   951   970 1
 1037   950   951 1
 1038   948   949 1
 1039   948   950 1
 1040   948   968 1
 1041   945   946 1
 1042   945   947 1
 1043   945   948 1
 1044   944   945 1
 1045   941   942 1
 1046   941   943 1
 1047   941   944 1
 1048  1005  1006 1
 1049  1003  1004 1
 1050  1001  1002 1
 1051  1001  1003 1
 1052   999  1000 1
 1053   999  1001 1
 1054   999  1005 1
 1055   997   998 1
 1056   996   997 1
 1057   993   994 1
 1058   993   995 1
 1059   992   993 1
 1060   992   996 1
 1061   990   991 1
 1062   990   992 1
 1063   988   989 1
 1064   988   990 1
 1065   987   988 1
 1066   987   997 1
 1067   985   986 1
 1068   985   987 1
 1069   985  1001 1
 1070   984   985 1
 1071   982   983 1
 1072   982   984 1
 1073   982   999 1
 1074   979   980 1
 1075   979   981 1
 1076   979   982 1
 1077   978   979 1
 1078   975   976 1
 1079   975   977 1
 1080   975   978 1
 1081  1035  1036 1
 1082  1033  1034 1
 1083  1031  1032 1
 1084  1031  1033 1
 1085  1029  1030 1
 1086  1029  1031 1
 1087  1029  1035 1
 1088  1027  1028 1
 1089  1025  1026 1
 1090  1025  1027 1
 1091  1023  1024 1
 1092  1023  1025 1
 1093  1021  1022 1
 1094  1021  1023 1
 1095  1019  1020 1
 1096  1019  1021 1
 1097  1018  1019 1
 1098  1018  1027 1
 1099  1016  1017 1
 1100  1016  1018 1
 1101  1016  1031 1
 1102  1015  1016 1
 1103  1013  1014 1
 1104  1013  1015 1
 1105  1013  1029 1
 1106  1010  1011 1
 1107  1010  1012 1
 1108  1010  1013 1
 1109  1009  1010 1
 1110  1006  1007 1
 1111  1006  1008 1
 1112  1006  1009 1
 1113  1065  1066 1
 1114  1063  1064 1
 1115  1061  1062 1
 1116  1061  1063 1
 1117  1059  1060 1
 1118  1059  1061 1
 1119  1059  1065 1
 1120  1057  1058 1
 1121  1055  1056 1
 1122  1055  1057 1
 1123  1053  1054 1
 1124  1053  1055 1
 1125  1051  1052 1
 1126  1051  1053 1
 1127  1049  1050 1
 1128  1049  1051 1
 1129  1048  1049 1
 1130  1048  1057 1
 1131  1046  1047 1
 1132  1046  1048 1
 1133  1046  1061 1
 1134  1045  1046 1
 1135  1043  1044 1
 1136  1043  1045 1
 1137  1043  1059 1
 1138  1040  1041 1
 1139  1040  1042 1
 1140  1040  1043 1
 1141  1039  1040 1
 1142  1036  1037 1
 1143  1036  1038 1
 1144  1036  1039 1
 1145  1096  1097 1
 1146  1094  1095 1
 1147  1092  1093 1
 1148  1092  1094 1
 1149  1090  1091 1
 1150  1090  1092 1
 1151  1090  1096 1
 1152  1088  1089 1
 1153  1087  1088 1
 1154  1084  1085 1
 1155  1084  1086 1
 1156  1083  1084 1
 1157  1083  1087 1
 1158  1081  1082 1
 1159  1081  1083 1
 1160  1079  1080 1
 1161  1079  1081 1
 1162  1078  1079 1
 1163  1078  1088 1
 1164  1076  1077 1
 1165  1076  1078 1
 1166  1076  1092 1
 1167  1075  1076 1
 1168  1073  1074 1
 1169  1073  1075 1
 1170  1073  1090 1
 1171  1070  1071 1
 1172  1070  1072 1
 1173  1070  1073 1
 1174  1069  1070 1
 1175  1066  1067 1
 1176  1066  1068 1
 1177  1066  1069 1
 1178  1126  1127 1
 1179  1124  1125 1
 1180  1122  1123 1
 1181  1122  1124 1
 1182  1120  1121 1
 1183  1120  1122 1
 1184  1120  1126 1
 1185  1118  1119 1
 1186  1116  1117 1
 1187  1116  1118 1
 1188  1114  1115 1
 1189  1114  1116 1
 1190  1112  1113 1
 1191  1112  1114 1
 1192  1110  1111 1
 1193  1110  1112 1
 1194  1109  1110 1
 1195  1109  1118 1
 1196  1107  1108 1
 1197  1107  1109 1
 1198  1107  1122 1
 1199  1106  1107 1
 1200  1104  1105 1
 1201  1104  1106 1
 1202  1104  1120 1
 1203  1101  1102 1
 1204  1101  1103 1
 1205  1101  1104 1
 1206  1100  1101 1
 1207  1097  1098 1
 1208  1097  1099 1
 1209  1097  1100 1
 1210  1156  1157 1
 1211  1154  1155 1
 1212  1152  1153 1
 1213  1152  1154 1
 1214  1150  1151 1
 1215  1150  1152 1
 1216  1150  1156 1
 1217  1148  1149 1
 1218  1146  1147 1
 1219  1146  1148 1
 1220  1144  1145 1
 1221  1144  1146 1
 1222  1142  1143 1
 1223  1142  1144 1
 1224  1140  1141 1
 1225  1140  1142 1
 1226  1139  1140 1
 1227  1139  1148 1
 1228  1137  1138 1
 1229  1137  1139 1
 1230  1137  1152 1
 1231  1136  1137 1
 1232  1134  1135 1
 1233  1134  1136 1
 1234  1134  1150 1
 1235  1131  1132 1
 1236  1131  1133 1
 1237  1131  1134 1
 1238  1130  1131 1
 1239  1127  1128 1
 1240  1127  1129 1
 1241  1127  1130 1
 1242  1186  1187 1
 1243  1184  1185 1
 1244  1182  1183 1
 1245  1182  1184 1
 1246  1180  1181 1
 1247  1180  1182 1
 1248  1180  1186 1
 1249  1178  1179 1
 1250  1176  1177 1
 1251  1176  1178 1
 1252  1174  1175 1
 1253  1174  1176 1
 1254  1172  1173 1
 1255  1172  1174 1
 1256  1170  1171 1
 1257  1170  1172 1
 1258  1169  1170 1
 1259  1169  1178 1
 1260  1167  1168 1
 1261  1167  1169 1
 1262  1167  1182 1
 1263  1166  1167 1
 1264  1164  1165 1
 1265  1164  1166 1
 1266  1164  1180 1
 1267  1161  1162 1
 1268  1161  1163 1
 1269  1161  1164 1
 1270  1160  1161 1
 1271  1157  1158 1
 1272  1157  1159 1
 1273  1157  1160 1
 1274  1219  1220 1
 1275  1217  1218 1
 1276  1215  1216 1
 1277  1215  1217 1
 1278  1213  1214 1
 1279  1213  1215 1
 1280  1213  1219 1
 1281  1211  1212 1
 1282  1209  1210 1
 1283  1209  1211 1
 1284  1208  1209 1
 1285  1205  1206 1
 1286  1205  1207 1
 1287  1204  1205 1
 1288  1204  1208 1
 1289  1203  1204 1
 1290  1203  1212 1
 1291  1202  1203 1
 1292  1200  1201 1
 1293  1200  1202 1
 1294  1199  1200 1
 1295  1199  1212 1
 1296  1197  1198 1
 1297  1197  1199 1
 1298  1197  1215 1
 1299  1196  1197 1
 1300  1194  1195 1
 1301  1194  1196 1
 1302  1194  1213 1
 1303  1191  1192 1
 1304  1191  1193 1
 1305  1191  1194 1
 1306  1190  1191 1
 1307  1187  1188 1
 1308  1187  1189 1
 1309  1187  1190 1
 1310  1250  1251 1
 1311  1248  1249 1
 1312  1246  1247 1
 1313  1246  1248 1
 1314  1244  1245 1
 1315  1244  1246 1
 1316  1244  1250 1
 1317  1242  1243 1
 1318  1241  1242 1
 1319  1238  1239 1
 1320  1238  1240 1
 1321  1237  1238 1
 1322  1237  1241 1
 1323  1235  1236 1
 1324  1235  1237 1
 1325  1233  1234 1
 1326  1233  1235 1
 1327  1232  1233 1
 1328  1232  1242 1
 1329  1230  1231 1
 1330  1230  1232 1
 1331  1230  1246 1
 1332  1229  1230 1
 1333  1227  1228 1
 1334  1227  1229 1
 1335  1227  1244 1
 1336  1224  1225 1
 1337  1224  1226 1
 1338  1224  1227 1
 1339  1223  1224 1
 1340  1220  1221 1
 1341  1220  1222 1
 1342  1220  1223 1
 1343  1283  1284 1
 1344  1281  1282 1
 1345  1279  1280 1
 1346  1279  1281 1
 1347  1277  1278 1
 1348  1277  1279 1
 1349  1277  1283 1
 1350  1275  1276 1
 1351  1273  1274 1
 1352  1273  1275 1
 1353  1272  1273 1
 1354  1269  1270 1
 1355  1269  1271 1
 1356  1268  1269 1
 1357  1268  1272 1
 1358  1267  1268 1
 1359  1267  1276 1
 1360  1266  1267 1
 1361  1264  1265 1
 1362  1264  1266 1
 1363  1263  1264 1
 1364  1263  1276 1
 1365  1261  1262 1
 1366  1261  1263 1
 1367  1261  1279 1
 1368  1260  1261 1
 1369  1258  1259 1
 1370  1258  1260 1
 1371  1258  1277 1
 1372  1255  1256 1
 1373  1255  1257 1
 1374  1255  1258 1
 1375  1254  1255 1
 1376  1251  1252 1
 1377  1251  1253 1
 1378  1251  1254 1
 1379  1313  1314 1
 1380  1311  1312 1
 1381  1309  1310 1
 1382  1309  1311 1
 1383  1307  1308 1
 1384  1307  1309 1
 1385  1307  1313 1
 1386  1305  1306 1
 1387  1303  1304 1
 1388  1303  1305 1
 1389  1301  1302 1
 1390  1301  1303 1
 1391  1299  1300 1
 1392  1299  1301 1
 1393  1297  1298 1
 1394  1297  1299 1
 1395  1296  1297 1
 1396  1296  1305 1
 1397  1294  1295 1
 1398  1294  1296 1
 1399  1294  1309 1
 1400  1293  1294 1
 1401  1291  1292 1
 1402  1291  1293 1
 1403  1291  1307 1
 1404  1288  1289 1
 1405  1288  1290 1
 1406  1288  1291 1
 1407  1287  1288 1
 1408  1284  1285 1
 1409  1284  1286 1
 1410  1284  1287 1
 1411  1343  1344 1
 1412  1341  1342 1
 1413  1339  1340 1
 1414  1339  1341 1
 1415  1337  1338 1
 1416  1337  1339 1
 1417  1337  1343 1
 1418  1335  1336 1
 1419  1333  1334 1
 1420  1333  1335 1
 1421  1331  1332 1
 1422  1331  1333 1
 1423  1329  1330 1
 1424  1329  1331 1
 1425  1327  1328 1
 1426  1327  1329 1
 1427  1326  1327 1
 1428  1326  1335 1
 1429  1324  1325 1
 1430  1324  1326 1
 1431  1324  1339 1
 1432  1323  1324 1
 1433  1321  1322 1
 1434  1321  1323 1
 1435  1321  1337 1
 1436  1318  1319 1
 1437  1318  1320 1
 1438  1318  1321 1
 1439  1317  1318 1
 1440  1314  1315 1
 1441  1314  1316 1
 1442  1314  1317 1
 1443  1374  1375 1
 1444  1372  1373 1
 1445  1370  1371 1
 1446  1370  1372 1
 1447  1368  1369 1
 1448  1368  1370 1
 1449  1368  1374 1
 1450  1366  1367 1
 1451  1365  1366 1
 1452  1362  1363 1
 1453  1362  1364 1
 1454  1361  1362 1
 1455  1361  1365 1
 1456  1359  1360 1
 1457  1359  1361 1
 1458  1357  1358 1
 1459  1357  1359 1
 1460  1356  1357 1
 1461  1356  1366 1
 1462  1354  1355 1
 1463  1354  1356 1
 1464  1354  1370 1
 1465  1353  1354 1
 1466  1351  1352 1
 1467  1351  1353 1
 1468  1351  1368 1
 1469  1348  1349 1
 1470  1348  1350 1
 1471  1348  1351 1
 1472  1347  1348 1
 1473  1344  1345 1
 1474  1344  1346 1
 1475  1344  1347 1
 1476  1404  1405 1
 1477  1402  1403 1
 1478  1400  1401 1
 1479  1400  1402 1
 1480  1398  1399 1
 1481  1398  1400 1
 1482  1398  1404 1
 1483  1396  1397 1
 1484  1394  1395 1
 1485  1394  1396 1
 1486  1392  1393 1
 1487  1392  1394 1
 1488  1390  1391 1
 1489  1390  1392 1
 1490  1388  1389 1
 1491  1388  1390 1
 1492  1387  1388 1
 1493  1387  1396 1
 1494  1385  1386 1
 1495  1385  1387 1
 1496  1385  1400 1
 1497  1384  1385 1
 1498  1382  1383 1
 1499  1382  1384 1
 1500  1382  1398 1
 1501  1379  1380 1
 1502  1379  1381 1
 1503  1379  1382 1
 1504  1378  1379 1
 1505  1375  1376 1
 1506  1375  1377 1
 1507  1375  1378 1
 1508  1437  1438 1
 1509  1435  1436 1
 1510  1433  1434 1
 1511  1433  1435 1
 1512  1431  1432 1
 1513  1431  1433 1
 1514  1431  1437 1
 1515  1429  1430 1
 1516  1427  1428 1
 1517  1427  1429 1
 1518  1426  1427 1
 1519  1423  1424 1
 1520  1423  1425 1
 1521  1422  1423 1
 1522  1422  1426 1
 1523  1421  1422 1
 1524  1421  1430 1
 1525  1420  1421 1
 1526  1418  1419 1
 1527  1418  1420 1
 1528  1417  1418 1
 1529  1417  1430 1
 1530  1415  1416 1
 1531  1415  1417 1
 1532  1415  1433 1
 1533  1414  1415 1
 1534  1412  1413 1
 1535  1412  1414 1
 1536  1412  1431 1
 1537  1409  1410 1
 1538  1409  1411 1
 1539  1409  1412 1
 1540  1408  1409 1
 1541  1405  1406 1
 1542  1405  1407 1
 1543  1405  1408 1
 1544  1467  1468 1
 1545  1465  1466 1
 1546  1463  1464 1
 1547  1463  1465 1
 1548  1461  1462 1
 1549  1461  1463 1
 1550  1461  1467 1
 1551  1459  1460 1
 1552  1457  1458 1
 1553  1457  1459 1
 1554  1455  1456 1
 1555  1455  1457 1
 1556  1453  1454 1
 1557  1453  1455 1
 1558  1451  1452 1
 1559  1451  1453 1
 1560  1450  1451 1
 1561  1450  1459 1
 1562  1448  1449 1
 1563  1448  1450 1
 1564  1448  1463 1
 1565  1447  1448 1
 1566  1445  1446 1
 1567  1445  1447 1
 1568  1445  1461 1
 1569  1442  1443 1
 1570  1442  1444 1
 1571  1442  1445 1
 1572  1441  1442 1
 1573  1438  1439 1
 1574  1438  1440 1
 1575  1438  1441 1
 1576  1498  1499 1
 1577  1496  1497 1
 1578  1494  1495 1
 1579  1494  1496 1
 1580  1492  1493 1
 1581  1492  1494 1
 1582  1492  1498 1
 1583  1490  1491 1
 1584  1489  1490 1
 1585  1486  1487 1
 1586  1486  1488 1
 1587  1485  1486 1
 1588  1485  1489 1
 1589  1483  1484 1
 1590  1483  1485 1
 1591  1481  1482 1
 1592  1481  1483 1
 1593  1480  1481 1
 1594  1480  1490 1
 1595  1478  1479 1
 1596  1478  1480 1
 1597  1478  1494 1
 1598  1477  1478 1
 1599  1475  1476 1
 1600  1475  1477 1
 1601  1475  1492 1
 1602  1472  1473 1
 1603  1472  1474 1
 1604  1472  1475 1
 1605  1471  1472 1
 1606  1468  1469 1
 1607  1468  1470 1
 1608  1468  1471 1
 1609  1528  1529 1
 1610  1526  1527 1
 1611  1524  1525 1
 1612  1524  1526 1
 1613  1522  1523 1
 1614  1522  1524 1
 1615  1522  1528 1
 1616  1520  1521 1
 1617  1518  1519 1
 1618  1518  1520 1
 1619  1516  1517 1
 1620  1516  1518 1
 1621  1514  1515 1
 1622  1514  1516 1
 1623  1512  1513 1
 1624  1512  1514 1
 1625  1511  1512 1
 1626  1511  1520 1
 1627  1509  1510 1
 1628  1509  1511 1
 1629  1509  1524 1
 1630  1508  1509 1
 1631  1506  1507 1
 1632  1506  1508 1
 1633  1506  1522 1
 1634  1503  1504 1
 1635  1503  1505 1
 1636  1503  1506 1
 1637  1502  1503 1
 1638  1499  1500 1
 1639  1499  1501 1
 1640  1499  1502 1
 1641  1558  1559 1
 1642  1556  1557 1
 1643  1554  1555 1
 1644  1554  1556 1
 1645  1552  1553 1
 1646  1552  1554 1
 1647  1552  1558 1
 1648  1550  1551 1
 1649  1548  1549 1
 1650  1548  1550 1
 1651  1546  1547 1
 1652  1546  1548 1
 1653  1544  1545 1
 1654  1544  1546 1
 1655  1542  1543 1
 1656  1542  1544 1
 1657  1541  1542 1
 1658  1541  1550 1
 1659  1539  1540 1
 1660  1539  1541 1
 1661  1539  1554 1
 1662  1538  1539 1
 1663  1536  1537 1
 1664  1536  1538 1
 1665  1536  1552 1
 1666  1533  1534 1
 1667  1533  1535 1
 1668  1533  1536 1
 1669  1532  1533 1
 1670  1529  1530 1
 1671  1529  1531 1
 1672  1529  1532 1
 1673  1591  1592 1
 1674  1589  1590 1
 1675  1587  1588 1
 1676  1587  1589 1
 1677  1585  1586 1
 1678  1585  1587 1
 1679  1585  1591 1
 1680  1583  1584 1
 1681  1580  1581 1
 1682  1580  1582 1
 1683  1579  1580 1
 1684  1579  1583 1
 1685  1577  1578 1
 1686  1577  1579 1
 1687  1575  1576 1
 1688  1575  1577 1
 1689  1574  1575 1
 1690  1574  1584 1
 1691  1573  1574 1
 1692  1571  1572 1
 1693  1571  1573 1
 1694  1570  1571 1
 1695  1570  1584 1
 1696  1568  1569 1
 1697  1568  1570 1
 1698  1568  1587 1
 1699  1567  1568 1
 1700  1565  1566 1
 1701  1565  1567 1
 1702  1565  1585 1
 1703  1562  1563 1
 1704  1562  1564 1
 1705  1562  1565 1
 1706  1561  1562 1
 1707  1560  1561 1
 1708  1625  1626 1
 1709  1623  1624 1
 1710  1621  1622 1
 1711  1621  1623 1
 1712  1619  1620 1
 1713  1619  1621 1
 1714  1619  1625 1
 1715  1617  1618 1
 1716  1614  1615 1
 1717  1614  1616 1
 1718  1613  1614 1
 1719  1613  1617 1
 1720  1611  1612 1
 1721  1611  1613 1
 1722  1609  1610 1
 1723  1609  1611 1
 1724  1608  1609 1
 1725  1608  1618 1
 1726  1607  1608 1
 1727  1605  1606 1
 1728  1605  1607 1
 1729  1604  1605 1
 1730  1604  1618 1
 1731  1602  1603 1
 1732  1602  1604 1
 1733  1602  1621 1
 1734  1601  1602 1
 1735  1599  1600 1
 1736  1599  1601 1
 1737  1599  1619 1
 1738  1596  1597 1
 1739  1596  1598 1
 1740  1596  1599 1
 1741  1595  1596 1
 1742  1592  1593 1
 1743  1592  1594 1
 1744  1592  1595 1
 1745  1655  1656 1
 1746  1653  1654 1
 1747  1651  1652 1
 1748  1651  1653 1
 1749  1649  1650 1
 1750  1649  1651 1
 1751  1649  1655 1
 1752  1647  1648 1
 1753  1645  1646 1
 1754  1645  1647 1
 1755  1643  1644 1
 1756  1643  1645 1
 1757  1641  1642 1
 1758  1641  1643 1
 1759  1639  1640 1
 1760  1639  1641 1
 1761  1638  1639 1
 1762  1638  1647 1
 1763  1636  1637 1
 1764  1636  1638 1
 1765  1636  1651 1
 1766  1635  1636 1
 1767  1633  1634 1
 1768  1633  1635 1
 1769  1633  1649 1
 1770  1630  1631 1
 1771  1630  1632 1
 1772  1630  1633 1
 1773  1629  1630 1
 1774  1626  1627 1
 1775  1626  1628 1
 1776  1626  1629 1
 1777  1686  1687 1
 1778  1684  1685 1
 1779  1682  1683 1
 1780  1682  1684 1
 1781  1680  1681 1
 1782  1680  1682 1
 1783  1680  1686 1
 1784  1678  1679 1
 1785  1677  1678 1
 1786  1674  1675 1
 1787  1674  1676 1
 1788  1673  1674 1
 1789  1673  1677 1
 1790  1671  1672 1
 1791  1671  1673 1
 1792  1669  1670 1
 1793  1669  1671 1
 1794  1668  1669 1
 1795  1668  1678 1
 1796  1666  1667 1
 1797  1666  1668 1
 1798  1666  1682 1
 1799  1665  1666 1
 1800  1663  1664 1
 1801  1663  1665 1
 1802  1663  1680 1
 1803  1660  1661 1
 1804  1660  1662 1
 1805  1660  1663 1
 1806  1659  1660 1
 1807  1656  1657 1
 1808  1656  1658 1
 1809  1656  1659 1
 1810  1717  1718 1
 1811  1715  1716 1
 1812  1713  1714 1
 1813  1713  1715 1
 1814  1711  1712 1
 1815  1711  1713 1
 1816  1711  1717 1
 1817  1709  1710 1
 1818  1708  1709 1
 1819  1705  1706 1
 1820  1705  1707 1
 1821  1704  1705 1
 1822  1704  1708 1
 1823  1702  1703 1
 1824  1702  1704 1
 1825  1700  1701 1
 1826  1700  1702 1
 1827  1699  1700 1
 1828  1699  1709 1
 1829  1697  1698 1
 1830  1697  1699 1
 1831  1697  1713 1
 1832  1696  1697 1
 1833  1694  1695 1
 1834  1694  1696 1
 1835  1694  1711 1
 1836  1691  1692 1
 1837  1691  1693 1
 1838  1691  1694 1
 1839  1690  1691 1
 1840  1687  1688 1
 1841  1687  1689 1
 1842  1687  1690 1
 1843  1747  1748 1
 1844  1745  1746 1
 1845  1743  1744 1
 1846  1743  1745 1
 1847  1741  1742 1
 1848  1741  1743 1
 1849  1741  1747 1
 1850  1739  1740 1
 1851  1737  1738 1
 1852  1737  1739 1
 1853  1735  1736 1
 1854  1735  1737 1
 1855  1733  1734 1
 1856  1733  1735 1
 1857  1731  1732 1
 1858  1731  1733 1
 1859  1730  1731 1
 1860  1730  1739 1
 1861  1728  1729 1
 1862  1728  1730 1
 1863  1728  1743 1
 1864  1727  1728 1
 1865  1725  1726 1
 1866  1725  1727 1
 1867  1725  1741 1
 1868  1722  1723 1
 1869  1722  1724 1
 1870  1722  1725 1
 1871  1721  1722 1
 1872  1718  1719 1
 1873  1718  1720 1
 1874  1718  1721 1
 1875  1780  1781 1
 1876  1778  1779 1
 1877  1776  1777 1
 1878  1776  1778 1
 1879  1774  1775 1
 1880  1774  1776 1
 1881  1774  1780 1
 1882  1772  1773 1
 1883  1770  1771 1
 1884  1770  1772 1
 1885  1769  1770 1
 1886  1766  1767 1
 1887  1766  1768 1
 1888  1765  1766 1
 1889  1765  1769 1
 1890  1764  1765 1
 1891  1764  1773 1
 1892  1763  1764 1
 1893  1761  1762 1
 1894  1761  1763 1
 1895  1760  1761 1
 1896  1760  1773 1
 1897  1758  1759 1
 1898  1758  1760 1
 1899  1758  1776 1
 1900  1757  1758 1
 1901  1755  1756 1
 1902  1755  1757 1
 1903  1755  1774 1
 1904  1752  1753 1
 1905  1752  1754 1
 1906  1752  1755 1
 1907  1751  1752 1
 1908  1748  1749 1
 1909  1748  1750 1
 1910  1748  1751 1
 1911  1810  1811 1
 1912  1808  1809 1
 1913  1806  1807 1
 1914  1806  1808 1
 1915  1804  1805 1
 1916  1804  1806 1
 1917  1804  1810 1
 1918  1802  1803 1
 1919  1800  1801 1
 1920  1800  1802 1
 1921  1798  1799 1
 1922  1798  1800 1
 1923  1796  1797 1
 1924  1796  1798 1
 1925  1794  1795 1
 1926  1794  1796 1
 1927  1793  1794 1
 1928  1793  1802 1
 1929  1791  1792 1
 1930  1791  1793 1
 1931  1791  1806 1
 1932  1790  1791 1
 1933  1788  1789 1
 1934  1788  1790 1
 1935  1788  1804 1
 1936  1785  1786 1
 1937  1785  1787 1
 1938  1785  1788 1
 1939  1784  1785 1
 1940  1781  1782 1
 1941  1781  1783 1
 1942  1781  1784 1
 1943  1843  1844 1
 1944  1841  1842 1
 1945  1839  1840 1
 1946  1839  1841 1
 1947  1837  1838 1
 1948  1837  1839 1
 1949  1837  1843 1
 1950  1835  1836 1
 1951  1833  1834 1
 1952  1833  1835 1
 1953  1832  1833 1
 1954  1829  1830 1
 1955  1829  1831 1
 1956  1828  1829 1
 1957  1828  1832 1
 1958  1827  1828 1
 1959  1827  1836 1
 1960  1826  1827 1
 1961  1824  1825 1
 1962  1824  1826 1
 1963  1823  1824 1
 1964  1823  1836 1
 1965  1821  1822 1
 1966  1821  1823 1
 1967  1821  1839 1
 1968  1820  1821 1
 1969  1818  1819 1
 1970  1818  1820 1
 1971  1818  1837 1
 1972  1815  1816 1
 1973  1815  1817 1
 1974  1815  1818 1
 1975  1814  1815 1
 1976  1811  1812 1
 1977  1811  1813 1
 1978  1811  1814 1
 1979  1874  1875 1
 1980  1872  1873 1
 1981  1870  1871 1
 1982  1870  1872 1
 1983  1868  1869 1
 1984  1868  1870 1
 1985  1868  1874 1
 1986  1866  1867 1
 1987  1865  1866 1
 1988  1862  1863 1
 1989  1862  1864 1
 1990  1861  1862 1
 1991  1861  1865 1
 1992  1859  1860 1
 1993  1859  1861 1
 1994  1857  1858 1
 1995  1857  1859 1
 1996  1856  1857 1
 1997  1856  1866 1
 1998  1854  1855 1
 1999  1854  1856 1
 2000  1854  1870 1
 2001  1853  1854 1
 2002  1851  1852 1
 2003  1851  1853 1
 2004  1851  1868 1
 2005  1848  1849 1
 2006  1848  1850 1
 2007  1848  1851 1
 2008  1847  1848 1
 2009  1844  1845 1
 2010  1844  1846 1
 2011  1844  1847 1
 2012  1904  1905 1
 2013  1902  1903 1
 2014  1900  1901 1
 2015  1900  1902 1
 2016  1898  1899 1
 2017  1898  1900 1
 2018  1898  1904 1
 2019  1896  1897 1
 2020  1894  1895 1
 2021  1894  1896 1
 2022  1892  1893 1
 2023  1892  1894 1
 2024  1890  1891 1
 2025  1890  1892 1
 2026  1888  1889 1
 2027  1888  1890 1
 2028  1887  1888 1
 2029  1887  1896 1
 2030  1885  1886 1
 2031  1885  1887 1
 2032  1885  1900 1
 2033  1884  1885 1
 2034  1882  1883 1
 2035  1882  1884 1
 2036  1882  1898 1
 2037  1879  1880 1
 2038  1879  1881 1
 2039  1879  1882 1
 2040  1878  1879 1
 2041  1875  1876 1
 2042  1875  1877 1
 2043  1875  1878 1
 2044  1934  1935 1
 2045  1932  1933 1
 2046  1930  1931 1
 2047  1930  1932 1
 2048  1928  1929 1
 2049  1928  1930 1
 2050  1928  1934 1
 2051  1926  1927 1
 2052  1924  1925 1
 2053  1924  1926 1
 2054  1922  1923 1
 2055  1922  1924 1
 2056  1920  1921 1
 2057  1920  1922 1
 2058  1918  1919 1
 2059  1918  1920 1
 2060  1917  1918 1
 2061  1917  1926 1
 2062  1915  1916 1
 2063  1915  1917 1
 2064  1915  1930 1
 2065  1914  1915 1
 2066  1912  1913 1
 2067  1912  1914 1
 2068  1912  1928 1
 2069  1909  1910 1
 2070  1909  1911 1
 2071  1909  1912 1
 2072  1908  1909 1
 2073  1905  1906 1
 2074  1905  1907 1
 2075  1905  1908 1
 2076  1965  1966 1
 2077  1963  1964 1
 2078  1961  1962 1
 2079  1961  1963 1
 2080  1959  1960 1
 2081  1959  1961 1
 2082  1959  1965 1
 2083  1957  1958 1
 2084  1956  1957 1
 2085  1953  1954 1
 2086  1953  1955 1
 2087  1952  1953 1
 2088  1952  1956 1
 2089  1950  1951 1
 2090  1950  1952 1
 2091  1948  1949 1
 2092  1948  1950 1
 2093  1947  1948 1
 2094  1947  1957 1
 2095  1945  1946 1
 2096  1945  1947 1
 2097  1945  1961 1
 2098  1944  1945 1
 2099  1942  1943 1
 2100  1942  1944 1
 2101  1942  1959 1
 2102  1939  1940 1
 2103  1939  1941 1
 2104  1939  1942 1
 2105  1938  1939 1
 2106  1935  1936 1
 2107  1935  1937 1
 2108  1935  1938 1
 2109  1998  1999 1
 2110  1996  1997 1
 2111  1994  1995 1
 2112  1994  1996 1
 2113  1992  1993 1
 2114  1992  1994 1
 2115  1992  1998 1
 2116  1990  1991 1
 2117  1988  1989 1
 2118  1988  1990 1
 2119  1987  1988 1
 2120  1984  1985 1
 2121  1984  1986 1
 2122  1983  1984 1
 2123  1983  1987 1
 2124  1982  1983 1
 2125  1982  1991 1
 2126  1981  1982 1
 2127  1979  1980 1
 2128  1979  1981 1
 2129  1978  1979 1
 2130  1978  1991 1
 2131  1976  1977 1
 2132  1976  1978 1
 2133  1976  1994 1
 2134  1975  1976 1
 2135  1973  1974 1
 2136  1973  1975 1
 2137  1973  1992 1
 2138  1970  1971 1
 2139  1970  1972 1
 2140  1970  1973 1
 2141  1969  1970 1
 2142  1966  1967 1
 2143  1966  1968 1
 2144  1966  1969 1
 2145  2031  2032 1
 2146  2029  2030 1
 2147  2027  2028 1
 2148  2027  2029 1
 2149  2025  2026 1
 2150  2025  2027 1
 2151  2025  2031 1
 2152  2023  2024 1
 2153  2021  2022 1
 2154  2021  2023 1
 2155  2020  2021 1
 2156  2017  2018 1
 2157  2017  2019 1
 2158  2016  2017 1
 2159  2016  2020 1
 2160  2015  2016 1
 2161  2015  2024 1
 2162  2014  2015 1
 2163  2012  2013 1
 2164  2012  2014 1
 2165  2011  2012 1
 2166  2011  2024 1
 2167  2009  2010 1
 2168  2009  2011 1
 2169  2009  2027 1
 2170  2008  2009 1
 2171  2006  2007 1
 2172  2006  2008 1
 2173  2006  2025 1
 2174  2003  2004 1
 2175  2003  2005 1
 2176  2003  2006 1
 2177  2002  2003 1
 2178  1999  2000 1
 2179  1999  2001 1
 2180  1999  2002 1
 2181  2062  2063 1
 2182  2060  2061 1
 2183  2058  2059 1
 2184  2058  2060 1
 2185  2056  2057 1
 2186  2056  2058 1
 2187  2056  2062 1
 2188  2054  2055 1
 2189  2053  2054 1
 2190  2050  2051 1
 2191  2050  2052 1
 2192  2049  2050 1
 2193  2049  2053 1
 2194  2047  2048 1
 2195  2047  2049 1
 2196  2045  2046 1
 2197  2045  2047 1
 2198  2044  2045 1
 2199  2044  2054 1
 2200  2042  2043 1
 2201  2042  2044 1
 2202  2042  2058 1
 2203  2041  2042 1
 2204  2039  2040 1
 2205  2039  2041 1
 2206  2039  2056 1
 2207  2036  2037 1
 2208  2036  2038 1
 2209  2036  2039 1
 2210  2035  2036 1
 2211  2032  2033 1
 2212  2032  2034 1
 2213  2032  2035 1
 2214  2092  2093 1
 2215  2090  2091 1
 2216  2088  2089 1
 2217  2088  2090 1
 2218  2086  2087 1
 2219  2086  2088 1
 2220  2086  2092 1
 2221  2084  2085 1
 2222  2082  2083 1
 2223  2082  2084 1
 2224  2080  2081 1
 2225  2080  2082 1
 2226  2078  2079 1
 2227  2078  2080 1
 2228  2076  2077 1
 2229  2076  2078 1
 2230  2075  2076 1
 2231  2075  2084 1
 2232  2073  2074 1
 2233  2073  2075 1
 2234  2073  2088 1
 2235  2072  2073 1
 2236  2070  2071 1
 2237  2070  2072 1
 2238  2070  2086 1
 2239  2067  2068 1
 2240  2067  2069 1
 2241  2067  2070 1
 2242  2066  2067 1
 2243  2063  2064 1
 2244  2063  2065 1
 2245  2063  2066 1
 2246  2126  2127 1
 2247  2124  2125 1
 2248  2122  2123 1
 2249  2122  2124 1
 2250  2120  2121 1
 2251  2120  2122 1
 2252  2120  2126 1
 2253  2118  2119 1
 2254  2115  2116 1
 2255  2115  2117 1
 2256  2114  2115 1
 2257  2114  2118 1
 2258  2112  2113 1
 2259  2112  2114 1
 2260  2110  2111 1
 2261  2110  2112 1
 2262  2109  2110 1
 2263  2109  2119 1
 2264  2108  2109 1
 2265  2106  2107 1
 2266  2106  2108 1
 2267  2105  2106 1
 2268  2105  2119 1
 2269  2103  2104 1
 2270  2103  2105 1
 2271  2103  2122 1
 2272  2102  2103 1
 2273  2100  2101 1
 2274  2100  2102 1
 2275  2100  2120 1
 2276  2097  2098 1
 2277  2097  2099 1
 2278  2097  2100 1
 2279  2096  2097 1
 2280  2093  2094 1
 2281  2093  2095 1
 2282  2093  2096 1
 2283  2156  2157 1
 2284  2154  2155 1
 2285  2152  2153 1
 2286  2152  2154 1
 2287  2150  2151 1
 2288  2150  2152 1
 2289  2150  2156 1
 2290  2148  2149 1
 2291  2146  2147 1
 2292  2146  2148 1
 2293  2144  2145 1
 2294  2144  2146 1
 2295  2142  2143 1
 2296  2142  2144 1
 2297  2140  2141 1
 2298  2140  2142 1
 2299  2139  2140 1
 2300  2139  2148 1
 2301  2137  2138 1
 2302  2137  2139 1
 2303  2137  2152 1
 2304  2136  2137 1
 2305  2134  2135 1
 2306  2134  2136 1
 2307  2134  2150 1
 2308  2131  2132 1
 2309  2131  2133 1
 2310  2131  2134 1
 2311  2130  2131 1
 2312  2127  2128 1
 2313  2127  2129 1
 2314  2127  2130 1
 2315  2186  2187 1
 2316  2184  2185 1
 2317  2182  2183 1
 2318  2182  2184 1
 2319  2180  2181 1
 2320  2180  2182 1
 2321  2180  2186 1
 2322  2178  2179 1
 2323  2176  2177 1
 2324  2176  2178 1
 2325  2174  2175 1
 2326  2174  2176 1
 2327  2172  2173 1
 2328  2172  2174 1
 2329  2170  2171 1
 2330  2170  2172 1
 2331  2169  2170 1
 2332  2169  2178 1
 2333  2167  2168 1
 2334  2167  2169 1
 2335  2167  2182 1
 2336  2166  2167 1
 2337  2164  2165 1
 2338  2164  2166 1
 2339  2164  2180 1
 2340  2161  2162 1
 2341  2161  2163 1
 2342  2161  2164 1
 2343  2160  2161 1
 2344  2157  2158 1
 2345  2157  2159 1
 2346  2157  2160 1
 2347  2219  2220 1
 2348  2217  2218 1
 2349  2215  2216 1
 2350  2215  2217 1
 2351  2213  2214 1
 2352  2213  2215 1
 2353  2213  2219 1
 2354  2211  2212 1
 2355  2209  2210 1
 2356  2209  2211 1
 2357  2208  2209 1
 2358  2205  2206 1
 2359  2205  2207 1
 2360  2204  2205 1
 2361  2204  2208 1
 2362  2203  2204 1
 2363  2203  2212 1
 2364  2202  2203 1
 2365  2200  2201 1
 2366  2200  2202 1
 2367  2199  2200 1
 2368  2199  2212 1
 2369  2197  2198 1
 2370  2197  2199 1
 2371  2197  2215 1
 2372  2196  2197 1
 2373  2194  2195 1
 2374  2194  2196 1
 2375  2194  2213 1
 2376  2191  2192 1
 2377  2191  2193 1
 2378  2191  2194 1
 2379  2190  2191 1
 2380  2187  2188 1
 2381  2187  2189 1
 2382  2187  2190 1
 2383  2252  2253 1
 2384  2250  2251 1
 2385  2248  2249 1
 2386  2248  2250 1
 2387  2246  2247 1
 2388  2246  2248 1
 2389  2246  2252 1
 2390  2244  2245 1
 2391  2242  2243 1
 2392  2242  2244 1
 2393  2241  2242 1
 2394  2238  2239 1
 2395  2238  2240 1
 2396  2237  2238 1
 2397  2237  2241 1
 2398  2236  2237 1
 2399  2236  2245 1
 2400  2235  2236 1
 2401  2233  2234 1
 2402  2233  2235 1
 2403  2232  2233 1
 2404  2232  2245 1
 2405  2230  2231 1
 2406  2230  2232 1
 2407  2230  2248 1
 2408  2229  2230 1
 2409  2227  2228 1
 2410  2227  2229 1
 2411  2227  2246 1
 2412  2224  2225 1
 2413  2224  2226 1
 2414  2224  2227 1
 2415  2223  2224 1
 2416  2220  2221 1
 2417  2220  2222 1
 2418  2220  2223 1
 2419  2282  2283 1
 2420  2280  2281 1
 2421  2278  2279 1
 2422  2278  2280 1
 2423  2276  2277 1
 2424  2276  2278 1
 2425  2276  2282 1
 2426  2274  2275 1
 2427  2272  2273 1
 2428  2272  2274 1
 2429  2270  2271 1
 2430  2270  2272 1
 2431  2268  2269 1
 2432  2268  2270 1
 2433  2266  2267 1
 2434  2266  2268 1
 2435  2265  2266 1
 2436  2265  2274 1
 2437  2263  2264 1
 2438  2263  2265 1
 2439  2263  2278 1
 2440  2262  2263 1
 2441  2260  2261 1
 2442  2260  2262 1
 2443  2260  2276 1
 2444  2257  2258 1
 2445  2257  2259 1
 2446  2257  2260 1
 2447  2256  2257 1
 2448  2253  2254 1
 2449  2253  2255 1
 2450  2253  2256 1
 2451  2312  2313 1
 2452  2310  2311 1
 2453  2308  2309 1
 2454  2308  2310 1
 2455  2306  2307 1
 2456  2306  2308 1
 2457  2306  2312 1
 2458  2304  2305 1
 2459  2302  2303 1
 2460  2302  2304 1
 2461  2300  2301 1
 2462  2300  2302 1
 2463  2298  2299 1
 2464  2298  2300 1
 2465  2296  2297 1
 2466  2296  2298 1
 2467  2295  2296 1
 2468  2295  2304 1
 2469  2293  2294 1
 2470  2293  2295 1
 2471  2293  2308 1
 2472  2292  2293 1
 2473  2290  2291 1
 2474  2290  2292 1
 2475  2290  2306 1
 2476  2287  2288 1
 2477  2287  2289 1
 2478  2287  2290 1
 2479  2286  2287 1
 2480  2283  2284 1
 2481  2283  2285 1
 2482  2283  2286 1
 2483  2342  2343 1
 2484  2340  2341 1
 2485  2338  2339 1
 2486  2338  2340 1
 2487  2336  2337 1
 2488  2336  2338 1
 2489  2336  2342 1
 2490  2334  2335 1
 2491  2332  2333 1
 2492  2332  2334 1
 2493  2330  2331 1
 2494  2330  2332 1
 2495  2328  2329 1
 2496  2328  2330 1
 2497  2326  2327 1
 2498  2326  2328 1
 2499  2325  2326 1
 2500  2325  2334 1
 2501  2323  2324 1
 2502  2323  2325 1
 2503  2323  2338 1
 2504  2322  2323 1
 2505  2320  2321 1
 2506  2320  2322 1
 2507  2320  2336 1
 2508  2317  2318 1
 2509  2317  2319 1
 2510  2317  2320 1
 2511  2316  2317 1
 2512  2313  2314 1
 2513  2313  2315 1
 2514  2313  2316 1
 2515  2373  2374 1
 2516  2371  2372 1
 2517  2369  2370 1
 2518  2369  2371 1
 2519  2367  2368 1
 2520  2367  2369 1
 2521  2367  2373 1
 2522  2365  2366 1
 2523  2364  2365 1
 2524  2361  2362 1
 2525  2361  2363 1
 2526  2360  2361 1
 2527  2360  2364 1
 2528  2358  2359 1
 2529  2358  2360 1
 2530  2356  2357 1
 2531  2356  2358 1
 2532  2355  2356 1
 2533  2355  2365 1
 2534  2353  2354 1
 2535  2353  2355 1
 2536  2353  2369 1
 2537  2352  2353 1
 2538  2350  2351 1
 2539  2350  2352 1
 2540  2350  2367 1
 2541  2347  2348 1
 2542  2347  2349 1
 2543  2347  2350 1
 2544  2346  2347 1
 2545  2343  2344 1
 2546  2343  2345 1
 2547  2343  2346 1
 2548  2403  2404 1
 2549  2401  2402 1
 2550  2399  2400 1
 2551  2399  2401 1
 2552  2397  2398 1
 2553  2397  2399 1
 2554  2397  2403 1
 2555  2395  2396 1
 2556  2393  2394 1
 2557  2393  2395 1
 2558  2391  2392 1
 2559  2391  2393 1
 2560  2389  2390 1
 2561  2389  2391 1
 2562  2387  2388 1
 2563  2387  2389 1
 2564  2386  2387 1
 2565  2386  2395 1
 2566  2384  2385 1
 2567  2384  2386 1
 2568  2384  2399 1
 2569  2383  2384 1
 2570  2381  2382 1
 2571  2381  2383 1
 2572  2381  2397 1
 2573  2378  2379 1
 2574  2378  2380 1
 2575  2378  2381 1
 2576  2377  2378 1
 2577  2374  2375 1
 2578  2374  2376 1
 2579  2374  2377 1
 2580  2437  2438 1
 2581  2435  2436 1
 2582  2433  2434 1
 2583  2433  2435 1
 2584  2431  2432 1
 2585  2431  2433 1
 2586  2431  2437 1
 2587  2429  2430 1
 2588  2426  2427 1
 2589  2426  2428 1
 2590  2425  2426 1
 2591  2425  2429 1
 2592  2423  2424 1
 2593  2423  2425 1
 2594  2421  2422 1
 2595  2421  2423 1
 2596  2420  2421 1
 2597  2420  2430 1
 2598  2419  2420 1
 2599  2417  2418 1
 2600  2417  2419 1
 2601  2416  2417 1
 2602  2416  2430 1
 2603  2414  2415 1
 2604  2414  2416 1
 2605  2414  2433 1
 2606  2413  2414 1
 2607  2411  2412 1
 2608  2411  2413 1
 2609  2411  2431 1
 2610  2408  2409 1
 2611  2408  2410 1
 2612  2408  2411 1
 2613  2407  2408 1
 2614  2404  2405 1
 2615  2404  2406 1
 2616  2404  2407 1
 2617  2468  2469 1
 2618  2466  2467 1
 2619  2464  2465 1
 2620  2464  2466 1
 2621  2462  2463 1
 2622  2462  2464 1
 2623  2462  2468 1
 2624  2460  2461 1
 2625  2459  2460 1
 2626  2456  2457 1
 2627  2456  2458 1
 2628  2455  2456 1
 2629  2455  2459 1
 2630  2453  2454 1
 2631  2453  2455 1
 2632  2451  2452 1
 2633  2451  2453 1
 2634  2450  2451 1
 2635  2450  2460 1
 2636  2448  2449 1
 2637  2448  2450 1
 2638  2448  2464 1
 2639  2447  2448 1
 2640  2445  2446 1
 2641  2445  2447 1
 2642  2445  2462 1
 2643  2442  2443 1
 2644  2442  2444 1
 2645  2442  2445 1
 2646  2441  2442 1
 2647  2438  2439 1
 2648  2438  2440 1
 2649  2438  2441 1
 2650  2499  2500 1
 2651  2497  2498 1
 2652  2495  2496 1
 2653  2495  2497 1
 2654  2493  2494 1
 2655  2493  2495 1
 2656  2493  2499 1
 2657  2491  2492 1
 2658  2490  2491 1
 2659  2487  2488 1
 2660  2487  2489 1
 2661  2486  2487 1
 2662  2486  2490 1
 2663  2484  2485 1
 2664  2484  2486 1
 2665  2482  2483 1
 2666  2482  2484 1
 2667  2481  2482 1
 2668  2481  2491 1
 2669  2479  2480 1
 2670  2479  2481 1
 2671  2479  2495 1
 2672  2478  2479 1
 2673  2476  2477 1
 2674  2476  2478 1
 2675  2476  2493 1
 2676  2473  2474 1
 2677  2473  2475 1
 2678  2473  2476 1
 2679  2472  2473 1
 2680  2469  2470 1
 2681  2469  2471 1
 2682  2469  2472 1
 2683  2533  2534 1
 2684  2531  2532 1
 2685  2529  2530 1
 2686  2529  2531 1
 2687  2527  2528 1
 2688  2527  2529 1
 2689  2527  2533 1
 2690  2525  2526 1
 2691  2522  2523 1
 2692  2522  2524 1
 2693  2521  2522 1
 2694  2521  2525 1
 2695  2519  2520 1
 2696  2519  2521 1
 2697  2517  2518 1
 2698  2517  2519 1
 2699  2516  2517 1
 2700  2516  2526 1
 2701  2515  2516 1
 2702  2513  2514 1
 2703  2513  2515 1
 2704  2512  2513 1
 2705  2512  2526 1
 2706  2510  2511 1
 2707  2510  2512 1
 2708  2510  2529 1
 2709  2509  2510 1
 2710  2507  2508 1
 2711  2507  2509 1
 2712  2507  2527 1
 2713  2504  2505 1
 2714  2504  2506 1
 2715  2504  2507 1
 2716  2503  2504 1
 2717  2500  2501 1
 2718  2500  2502 1
 2719  2500  2503 1
 2720  2564  2565 1
 2721  2562  2563 1
 2722  2560  2561 1
 2723  2560  2562 1
 2724  2558  2559 1
 2725  2558  2560 1
 2726  2558  2564 1
 2727  2556  2557 1
 2728  2555  2556 1
 2729  2552  2553 1
 2730  2552  2554 1
 2731  2551  2552 1
 2732  2551  2555 1
 2733  2549  2550 1
 2734  2549  2551 1
 2735  2547  2548 1
 2736  2547  2549 1
 2737  2546  2547 1
 2738  2546  2556 1
 2739  2544  2545 1
 2740  2544  2546 1
 2741  2544  2560 1
 2742  2543  2544 1
 2743  2541  2542 1
 2744  2541  2543 1
 2745  2541  2558 1
 2746  2538  2539 1
 2747  2538  2540 1
 2748  2538  2541 1
 2749  2537  2538 1
 2750  2534  2535 1
 2751  2534  2536 1
 2752  2534  2537 1
 2753  2594  2595 1
 2754  2592  2593 1
 2755  2590  2591 1
 2756  2590  2592 1
 2757  2588  2589 1
 2758  2588  2590 1
 2759  2588  2594 1
 2760  2586  2587 1
 2761  2584  2585 1
 2762  2584  2586 1
 2763  2582  2583 1
 2764  2582  2584 1
 2765  2580  2581 1
 2766  2580  2582 1
 2767  2578  2579 1
 2768  2578  2580 1
 2769  2577  2578 1
 2770  2577  2586 1
 2771  2575  2576 1
 2772  2575  2577 1
 2773  2575  2590 1
 2774  2574  2575 1
 2775  2572  2573 1
 2776  2572  2574 1
 2777  2572  2588 1
 2778  2569  2570 1
 2779  2569  2571 1
 2780  2569  2572 1
 2781  2568  2569 1
 2782  2565  2566 1
 2783  2565  2567 1
 2784  2565  2568 1
 2785  2624  2625 1
 2786  2622  2623 1
 2787  2620  2621 1
 2788  2620  2622 1
 2789  2618  2619 1
 2790  2618  2620 1
 2791  2618  2624 1
 2792  2616  2617 1
 2793  2614  2615 1
 2794  2614  2616 1
 2795  2612  2613 1
 2796  2612  2614 1
 2797  2610  2611 1
 2798  2610  2612 1
 2799  2608  2609 1
 2800  2608  2610 1
 2801  2607  2608 1
 2802  2607  2616 1
 2803  2605  2606 1
 2804  2605  2607 1
 2805  2605  2620 1
 2806  2604  2605 1
 2807  2602  2603 1
 2808  2602  2604 1
 2809  2602  2618 1
 2810  2599  2600 1
 2811  2599  2601 1
 2812  2599  2602 1
 2813  2598  2599 1
 2814  2595  2596 1
 2815  2595  2597 1
 2816  2595  2598 1
 2817  2655  2656 1
 2818  2653  2654 1
 2819  2651  2652 1
 2820  2651  2653 1
 2821  2649  2650 1
 2822  2649  2651 1
 2823  2649  2655 1
 2824  2647  2648 1
 2825  2646  2647 1
 2826  2643  2644 1
 2827  2643  2645 1
 2828  2642  2643 1
 2829  2642  2646 1
 2830  2640  2641 1
 2831  2640  2642 1
 2832  2638  2639 1
 2833  2638  2640 1
 2834  2637  2638 1
 2835  2637  2647 1
 2836  2635  2636 1
 2837  2635  2637 1
 2838  2635  2651 1
 2839  2634  2635 1
 2840  2632  2633 1
 2841  2632  2634 1
 2842  2632  2649 1
 2843  2629  2630 1
 2844  2629  2631 1
 2845  2629  2632 1
 2846  2628  2629 1
 2847  2625  2626 1
 2848  2625  2627 1
 2849  2625  2628 1
 2850  2685  2686 1
 2851  2683  2684 1
 2852  2681  2682 1
 2853  2681  2683 1
 2854  2679  2680 1
 2855  2679  2681 1
 2856  2679  2685 1
 2857  2677  2678 1
 2858  2675  2676 1
 2859  2675  2677 1
 2860  2673  2674 1
 2861  2673  2675 1
 2862  2671  2672 1
 2863  2671  2673 1
 2864  2669  2670 1
 2865  2669  2671 1
 2866  2668  2669 1
 2867  2668  2677 1
 2868  2666  2667 1
 2869  2666  2668 1
 2870  2666  2681 1
 2871  2665  2666 1
 2872  2663  2664 1
 2873  2663  2665 1
 2874  2663  2679 1
 2875  2660  2661 1
 2876  2660  2662 1
 2877  2660  2663 1
 2878  2659  2660 1
 2879  2656  2657 1
 2880  2656  2658 1
 2881  2656  2659 1
 2882  2715  2716 1
 2883  2713  2714 1
 2884  2711  2712 1
 2885  2711  2713 1
 2886  2709  2710 1
 2887  2709  2711 1
 2888  2709  2715 1
 2889  2707  2708 1
 2890  2705  2706 1
 2891  2705  2707 1
 2892  2703  2704 1
 2893  2703  2705 1
 2894  2701  2702 1
 2895  2701  2703 1
 2896  2699  2700 1
 2897  2699  2701 1
 2898  2698  2699 1
 2899  2698  2707 1
 2900  2696  2697 1
 2901  2696  2698 1
 2902  2696  2711 1
 2903  2695  2696 1
 2904  2693  2694 1
 2905  2693  2695 1
 2906  2693  2709 1
 2907  2690  2691 1
 2908  2690  2692 1
 2909  2690  2693 1
 2910  2689  2690 1
 2911  2686  2687 1
 2912  2686  2688 1
 2913  2686  2689 1
 2914  2745  2746 1
 2915  2743  2744 1
 2916  2741  2742 1
 2917  2741  2743 1
 2918  2739  2740 1
 2919  2739  2741 1
 2920  2739  2745 1
 2921  2737  2738 1
 2922  2735  2736 1
 2923  2735  2737 1
 2924  2733  2734 1
 2925  2733  2735 1
 2926  2731  2732 1
 2927  2731  2733 1
 2928  2729  2730 1
 2929  2729  2731 1
 2930  2728  2729 1
 2931  2728  2737 1
 2932  2726  2727 1
 2933  2726  2728 1
 2934  2726  2741 1
 2935  2725  2726 1
 2936  2723  2724 1
 2937  2723  2725 1
 2938  2723  2739 1
 2939  2720  2721 1
 2940  2720  2722 1
 2941  2720  2723 1
 2942  2719  2720 1
 2943  2716  2717 1
 2944  2716  2718 1
 2945  2716  2719 1
 2946  2778  2779 1
 2947  2776  2777 1
 2948  2774  2775 1
 2949  2774  2776 1
 2950  2772  2773 1
 2951  2772  2774 1
 2952  2772  2778 1
 2953  2770  2771 1
 2954  2768  2769 1
 2955  2768  2770 1
 2956  2767  2768 1
 2957  2764  2765 1
 2958  2764  2766 1
 2959  2763  2764 1
 2960  2763  2767 1
 2961  2762  2763 1
 2962  2762  2771 1
 2963  2761  2762 1
 2964  2759  2760 1
 2965  2759  2761 1
 2966  2758  2759 1
 2967  2758  2771 1
 2968  2756  2757 1
 2969  2756  2758 1
 2970  2756  2774 1
 2971  2755  2756 1
 2972  2753  2754 1
 2973  2753  2755 1
 2974  2753  2772 1
 2975  2750  2751 1
 2976  2750  2752 1
 2977  2750  2753 1
 2978  2749  2750 1
 2979  2746  2747 1
 2980  2746  2748 1
 2981  2746  2749 1
 2982  2809  2810 1
 2983  2807  2808 1
 2984  2805  2806 1
 2985  2805  2807 1
 2986  2803  2804 1
 2987  2803  2805 1
 2988  2803  2809 1
 2989  2801  2802 1
 2990  2800  2801 1
 2991  2797  2798 1
 2992  2797  2799 1
 2993  2796  2797 1
 2994  2796  2800 1
 2995  2794  2795 1
 2996  2794  2796 1
 2997  2792  2793 1
 2998  2792  2794 1
 2999  2791  2792 1
 3000  2791  2801 1
 3001  2789  2790 1
 3002  2789  2791 1
 3003  2789  2805 1
 3004  2788  2789 1
 3005  2786  2787 1
 3006  2786  2788 1
 3007  2786  2803 1
 3008  2783  2784 1
 3009  2783  2785 1
 3010  2783  2786 1
 3011  2782  2783 1
 3012  2779  2780 1
 3013  2779  2781 1
 3014  2779  2782 1
 3015  2842  2843 1
 3016  2840  2841 1
 3017  2838  2839 1
 3018  2838  2840 1
 3019  2836  2837 1
 3020  2836  2838 1
 3021  2836  2842 1
 3022  2834  2835 1
 3023  2832  2833 1
 3024  2832  2834 1
 3025  2831  2832 1
 3026  2828  2829 1
 3027  2828  2830 1
 3028  2827  2828 1
 3029  2827  2831 1
 3030  2826  2827 1
 3031  2826  2835 1
 3032  2825  2826 1
 3033  2823  2824 1
 3034  2823  2825 1
 3035  2822  2823 1
 3036  2822  2835 1
 3037  2820  2821 1
 3038  2820  2822 1
 3039  2820  2838 1
 3040  2819  2820 1
 3041  2817  2818 1
 3042  2817  2819 1
 3043  2817  2836 1
 3044  2814  2815 1
 3045  2814  2816 1
 3046  2814  2817 1
 3047  2813  2814 1
 3048  2810  2811 1
 3049  2810  2812 1
 3050  2810  2813 1
 3051  2872  2873 1
 3052  2870  2871 1
 3053  2868  2869 1
 3054  2868  2870 1
 3055  2866  2867 1
 3056  2866  2868 1
 3057  2866  2872 1
 3058  2864  2865 1
 3059  2862  2863 1
 3060  2862  2864 1
 3061  2860  2861 1
 3062  2860  2862 1
 3063  2858  2859 1
 3064  2858  2860 1
 3065  2856  2857 1
 3066  2856  2858 1
 3067  2855  2856 1
 3068  2855  2864 1
 3069  2853  2854 1
 3070  2853  2855 1
 3071  2853  2868 1
 3072  2852  2853 1
 3073  2850  2851 1
 3074  2850  2852 1
 3075  2850  2866 1
 3076  2847  2848 1
 3077  2847  2849 1
 3078  2847  2850 1
 3079  2846  2847 1
 3080  2843  2844 1
 3081  2843  2845 1
 3082  2843  2846 1
 3083  2902  2903 1
 3084  2900  2901 1
 3085  2898  2899 1
 3086  2898  2900 1
 3087  2896  2897 1
 3088  2896  2898 1
 3089  2896  2902 1
 3090  2894  2895 1
 3091  2892  2893 1
 3092  2892  2894 1
 3093  2890  2891 1
 3094  2890  2892 1
 3095  2888  2889 1
 3096  2888  2890 1
 3097  2886  2887 1
 3098  2886  2888 1
 3099  2885  2886 1
 3100  2885  2894 1
 3101  2883  2884 1
 3102  2883  2885 1
 3103  2883  2898 1
 3104  2882  2883 1
 3105  2880  2881 1
 3106  2880  2882 1
 3107  2880  2896 1
 3108  2877  2878 1
 3109  2877  2879 1
 3110  2877  2880 1
 3111  2876  2877 1
 3112  2873  2874 1
 3113  2873  2875 1
 3114  2873  2876 1
 3115  2933  2934 1
 3116  2931  2932 1
 3117  2929  2930 1
 3118  2929  2931 1
 3119  2927  2928 1
 3120  2927  2929 1
 3121  2927  2933 1
 3122  2925  2926 1
 3123  2924  2925 1
 3124  2921  2922 1
 3125  2921  2923 1
 3126  2920  2921 1
 3127  2920  2924 1
 3128  2918  2919 1
 3129  2918  2920 1
 3130  2916  2917 1
 3131  2916  2918 1
 3132  2915  2916 1
 3133  2915  2925 1
 3134  2913  2914 1
 3135  2913  2915 1
 3136  2913  2929 1
 3137  2912  2913 1
 3138  2910  2911 1
 3139  2910  2912 1
 3140  2910  2927 1
 3141  2907  2908 1
 3142  2907  2909 1
 3143  2907  2910 1
 3144  2906  2907 1
 3145  2903  2904 1
 3146  2903  2905 1
 3147  2903  2906 1
 3148  2963  2964 1
 3149  2961  2962 1
 3150  2959  2960 1
 3151  2959  2961 1
 3152  2957  2958 1
 3153  2957  2959 1
 3154  2957  2963 1
 3155  2955  2956 1
 3156  2953  2954 1
 3157  2953  2955 1
 3158  2951  2952 1
 3159  2951  2953 1
 3160  2949  2950 1
 3161  2949  2951 1
 3162  2947  2948 1
 3163  2947  2949 1
 3164  2946  2947 1
 3165  2946  2955 1
 3166  2944  2945 1
 3167  2944  2946 1
 3168  2944  2959 1
 3169  2943  2944 1
 3170  2941  2942 1
 3171  2941  2943 1
 3172  2941  2957 1
 3173  2938  2939 1
 3174  2938  2940 1
 3175  2938  2941 1
 3176  2937  2938 1
 3177  2934  2935 1
 3178  2934  2936 1
 3179  2934  2937 1
 3180  2996  2997 1
 3181  2994  2995 1
 3182  2992  2993 1
 3183  2992  2994 1
 3184  2990  2991 1
 3185  2990  2992 1
 3186  2990  2996 1
 3187  2988  2989 1
 3188  2986  2987 1
 3189  2986  2988 1
 3190  2985  2986 1
 3191  2982  2983 1
 3192  2982  2984 1
 3193  2981  2982 1
 3194  2981  2985 1
 3195  2980  2981 1
 3196  2980  2989 1
 3197  2979  2980 1
 3198  2977  2978 1
 3199  2977  2979 1
 3200  2976  2977 1
 3201  2976  2989 1
 3202  2974  2975 1
 3203  2974  2976 1
 3204  2974  2992 1
 3205  2973  2974 1
 3206  2971  2972 1
 3207  2971  2973 1
 3208  2971  2990 1
 3209  2968  2969 1
 3210  2968  2970 1
 3211  2968  2971 1
 3212  2967  2968 1
 3213  2964  2965 1
 3214  2964  2966 1
 3215  2964  2967 1
 3216  3026  3027 1
 3217  3024  3025 1
 3218  3022  3023 1
 3219  3022  3024 1
 3220  3020  3021 1
 3221  3020  3022 1
 3222  3020  3026 1
 3223  3018  3019 1
 3224  3016  3017 1
 3225  3016  3018 1
 3226  3014  3015 1
 3227  3014  3016 1
 3228  3012  3013 1
 3229  3012  3014 1
 3230  3010  3011 1
 3231  3010  3012 1
 3232  3009  3010 1
 3233  3009  3018 1
 3234  3007  3008 1
 3235  3007  3009 1
 3236  3007  3022 1
 3237  3006  3007 1
 3238  3004  3005 1
 3239  3004  3006 1
 3240  3004  3020 1
 3241  3001  3002 1
 3242  3001  3003 1
 3243  3001  3004 1
 3244  3000  3001 1
 3245  2997  2998 1
 3246  2997  2999 1
 3247  2997  3000 1
 3248  3057  3058 1
 3249  3055  3056 1
 3250  3053  3054 1
 3251  3053  3055 1
 3252  3051  3052 1
 3253  3051  3053 1
 3254  3051  3057 1
 3255  3049  3050 1
 3256  3048  3049 1
 3257  3045  3046 1
 3258  3045  3047 1
 3259  3044  3045 1
 3260  3044  3048 1
 3261  3042  3043 1
 3262  3042  3044 1
 3263  3040  3041 1
 3264  3040  3042 1
 3265  3039  3040 1
 3266  3039  3049 1
 3267  3037  3038 1
 3268  3037  3039 1
 3269  3037  3053 1
 3270  3036  3037 1
 3271  3034  3035 1
 3272  3034  3036 1
 3273  3034  3051 1
 3274  3031  3032 1
 3275  3031  3033 1
 3276  3031  3034 1
 3277  3030  3031 1
 3278  3027  3028 1
 3279  3027  3029 1
 3280  3027  3030 1
 3281  3087  3088 1
 3282  3085  3086 1
 3283  3083  3084 1
 3284  3083  3085 1
 3285  3081  3082 1
 3286  3081  3083 1
 3287  3081  3087 1
 3288  3079  3080 1
 3289  3077  3078 1
 3290  3077  3079 1
 3291  3075  3076 1
 3292  3075  3077 1
 3293  3073  3074 1
 3294  3073  3075 1
 3295  3071  3072 1
 3296  3071  3073 1
 3297  3070  3071 1
 3298  3070  3079 1
 3299  3068  3069 1
 3300  3068  3070 1
 3301  3068  3083 1
 3302  3067  3068 1
 3303  3065  3066 1
 3304  3065  3067 1
 3305  3065  3081 1
 3306  3062  3063 1
 3307  3062  3064 1
 3308  3062  3065 1
 3309  3061  3062 1
 3310  3058  3059 1
 3311  3058  3060 1
 3312  3058  3061 1
 3313  3117  3118 1
 3314  3115  3116 1
 3315  3113  3114 1
 3316  3113  3115 1
 3317  3111  3112 1
 3318  3111  3113 1
 3319  3111  3117 1
 3320  3109  3110 1
 3321  3107  3108 1
 3322  3107  3109 1
 3323  3105  3106 1
 3324  3105  3107 1
 3325  3103  3104 1
 3326  3103  3105 1
 3327  3101  3102 1
 3328  3101  3103 1
 3329  3100  3101 1
 3330  3100  3109 1
 3331  3098  3099 1
 3332  3098  3100 1
 3333  3098  3113 1
 3334  3097  3098 1
 3335  3095  3096 1
 3336  3095  3097 1
 3337  3095  3111 1
 3338  3092  3093 1
 3339  3092  3094 1
 3340  3092  3095 1
 3341  3091  3092 1
 3342  3088  3089 1
 3343  3088  3090 1
 3344  3088  3091 1
 3345  3150  3151 1
 3346  3148  3149 1
 3347  3146  3147 1
 3348  3146  3148 1
 3349  3144  3145 1
 3350  3144  3146 1
 3351  3144  3150 1
 3352  3142  3143 1
 3353  3139  3140 1
 3354  3139  3141 1
 3355  3138  3139 1
 3356  3138  3142 1
 3357  3136  3137 1
 3358  3136  3138 1
 3359  3134  3135 1
 3360  3134  3136 1
 3361  3133  3134 1
 3362  3133  3143 1
 3363  3132  3133 1
 3364  3130  3131 1
 3365  3130  3132 1
 3366  3129  3130 1
 3367  3129  3143 1
 3368  3127  3128 1
 3369  3127  3129 1
 3370  3127  3146 1
 3371  3126  3127 1
 3372  3124  3125 1
 3373  3124  3126 1
 3374  3124  3144 1
 3375  3121  3122 1
 3376  3121  3123 1
 3377  3121  3124 1
 3378  3120  3121 1
 3379  3119  3120 1
 3380  3184  3185 1
 3381  3182  3183 1
 3382  3180  3181 1
 3383  3180  3182 1
 3384  3178  3179 1
 3385  3178  3180 1
 3386  3178  3184 1
 3387  3176  3177 1
 3388  3173  3174 1
 3389  3173  3175 1
 3390  3172  3173 1
 3391  3172  3176 1
 3392  3170  3171 1
 3393  3170  3172 1
 3394  3168  3169 1
 3395  3168  3170 1
 3396  3167  3168 1
 3397  3167  3177 1
 3398  3166  3167 1
 3399  3164  3165 1
 3400  3164  3166 1
 3401  3163  3164 1
 3402  3163  3177 1
 3403  3161  3162 1
 3404  3161  3163 1
 3405  3161  3180 1
 3406  3160  3161 1
 3407  3158  3159 1
 3408  3158  3160 1
 3409  3158  3178 1
 3410  3155  3156 1
 3411  3155  3157 1
 3412  3155  3158 1
 3413  3154  3155 1
 3414  3151  3152 1
 3415  3151  3153 1
 3416  3151  3154 1
 3417  3217  3218 1
 3418  3215  3216 1
 3419  3213  3214 1
 3420  3213  3215 1
 3421  3211  3212 1
 3422  3211  3213 1
 3423  3211  3217 1
 3424  3209  3210 1
 3425  3207  3208 1
 3426  3207  3209 1
 3427  3206  3207 1
 3428  3203  3204 1
 3429  3203  3205 1
 3430  3202  3203 1
 3431  3202  3206 1
 3432  3201  3202 1
 3433  3201  3210 1
 3434  3200  3201 1
 3435  3198  3199 1
 3436  3198  3200 1
 3437  3197  3198 1
 3438  3197  3210 1
 3439  3195  3196 1
 3440  3195  3197 1
 3441  3195  3213 1
 3442  3194  3195 1
 3443  3192  3193 1
 3444  3192  3194 1
 3445  3192  3211 1
 3446  3189  3190 1
 3447  3189  3191 1
 3448  3189  3192 1
 3449  3188  3189 1
 3450  3185  3186 1
 3451  3185  3187 1
 3452  3185  3188 1
 3453  3248  3249 1
 3454  3246  3247 1
 3455  3244  3245 1
 3456  3244  3246 1
 3457  3242  3243 1
 3458  3242  3244 1
 3459  3242  3248 1
 3460  3240  3241 1
 3461  3239  3240 1
 3462  3236  3237 1
 3463  3236  3238 1
 3464  3235  3236 1
 3465  3235  3239 1
 3466  3233  3234 1
 3467  3233  3235 1
 3468  3231  3232 1
 3469  3231  3233 1
 3470  3230  3231 1
 3471  3230  3240 1
 3472  3228  3229 1
 3473  3228  3230 1
 3474  3228  3244 1
 3475  3227  3228 1
 3476  3225  3226 1
 3477  3225  3227 1
 3478  3225  3242 1
 3479  3222  3223 1
 3480  3222  3224 1
 3481  3222  3225 1
 3482  3221  3222 1
 3483  3218  3219 1
 3484  3218  3220 1
 3485  3218  3221 1
 3486  3279  3280 1
 3487  3277  3278 1
 3488  3275  3276 1
 3489  3275  3277 1
 3490  3273  3274 1
 3491  3273  3275 1
 3492  3273  3279 1
 3493  3271  3272 1
 3494  3270  3271 1
 3495  3267  3268 1
 3496  3267  3269 1
 3497  3266  3267 1
 3498  3266  3270 1
 3499  3264  3265 1
 3500  3264  3266 1
 3501  3262  3263 1
 3502  3262  3264 1
 3503  3261  3262 1
 3504  3261  3271 1
 3505  3259  3260 1
 3506  3259  3261 1
 3507  3259  3275 1
 3508  3258  3259 1
 3509  3256  3257 1
 3510  3256  3258 1
 3511  3256  3273 1
 3512  3253  3254 1
 3513  3253  3255 1
 3514  3253  3256 1
 3515  3252  3253 1
 3516  3249  3250 1
 3517  3249  3251 1
 3518  3249  3252 1
 3519  3312  3313 1
 3520  3310  3311 1
 3521  3308  3309 1
 3522  3308  3310 1
 3523  3306  3307 1
 3524  3306  3308 1
 3525  3306  3312 1
 3526  3304  3305 1
 3527  3302  3303 1
 3528  3302  3304 1
 3529  3301  3302 1
 3530  3298  3299 1
 3531  3298  3300 1
 3532  3297  3298 1
 3533  3297  3301 1
 3534  3296  3297 1
 3535  3296  3305 1
 3536  3295  3296 1
 3537  3293  3294 1
 3538  3293  3295 1
 3539  3292  3293 1
 3540  3292  3305 1
 3541  3290  3291 1
 3542  3290  3292 1
 3543  3290  3308 1
 3544  3289  3290 1
 3545  3287  3288 1
 3546  3287  3289 1
 3547  3287  3306 1
 3548  3284  3285 1
 3549  3284  3286 1
 3550  3284  3287 1
 3551  3283  3284 1
 3552  3280  3281 1
 3553  3280  3282 1
 3554  3280  3283 1
 3555  3345  3346 1
 3556  3343  3344 1
 3557  3341  3342 1
 3558  3341  3343 1
 3559  3339  3340 1
 3560  3339  3341 1
 3561  3339  3345 1
 3562  3337  3338 1
 3563  3335  3336 1
 3564  3335  3337 1
 3565  3334  3335 1
 3566  3331  3332 1
 3567  3331  3333 1
 3568  3330  3331 1
 3569  3330  3334 1
 3570  3329  3330 1
 3571  3329  3338 1
 3572  3328  3329 1
 3573  3326  3327 1
 3574  3326  3328 1
 3575  3325  3326 1
 3576  3325  3338 1
 3577  3323  3324 1
 3578  3323  3325 1
 3579  3323  3341 1
 3580  3322  3323 1
 3581  3320  3321 1
 3582  3320  3322 1
 3583  3320  3339 1
 3584  3317  3318 1
 3585  3317  3319 1
 3586  3317  3320 1
 3587  3316  3317 1
 3588  3313  3314 1
 3589  3313  3315 1
 3590  3313  3316 1
 3591  3379  3380 1
 3592  3377  3378 1
 3593  3375  3376 1
 3594  3375  3377 1
 3595  3373  3374 1
 3596  3373  3375 1
 3597  3373  3379 1
 3598  3371  3372 1
 3599  3368  3369 1
 3600  3368  3370 1
 3601  3367  3368 1
 3602  3367  3371 1
 3603  3365  3366 1
 3604  3365  3367 1
 3605  3363  3364 1
 3606  3363  3365 1
 3607  3362  3363 1
 3608  3362  3372 1
 3609  3361  3362 1
 3610  3359  3360 1
 3611  3359  3361 1
 3612  3358  3359 1
 3613  3358  3372 1
 3614  3356  3357 1
 3615  3356  3358 1
 3616  3356  3375 1
 3617  3355  3356 1
 3618  3353  3354 1
 3619  3353  3355 1
 3620  3353  3373 1
 3621  3350  3351 1
 3622  3350  3352 1
 3623  3350  3353 1
 3624  3349  3350 1
 3625  3346  3347 1
 3626  3346  3348 1
 3627  3346  3349 1
 3628  3412  3413 1
 3629  3410  3411 1
 3630  3408  3409 1
 3631  3408  3410 1
 3632  3406  3407 1
 3633  3406  3408 1
 3634  3406  3412 1
 3635  3404  3405 1
 3636  3402  3403 1
 3637  3402  3404 1
 3638  3401  3402 1
 3639  3398  3399 1
 3640  3398  3400 1
 3641  3397  3398 1
 3642  3397  3401 1
 3643  3396  3397 1
 3644  3396  3405 1
 3645  3395  3396 1
 3646  3393  3394 1
 3647  3393  3395 1
 3648  3392  3393 1
 3649  3392  3405 1
 3650  3390  3391 1
 3651  3390  3392 1
 3652  3390  3408 1
 3653  3389  3390 1
 3654  3387  3388 1
 3655  3387  3389 1
 3656  3387  3406 1
 3657  3384  3385 1
 3658  3384  3386 1
 3659  3384  3387 1
 3660  3383  3384 1
 3661  3380  3381 1
 3662  3380  3382 1
 3663  3380  3383 1
 3664  3442  3443 1
 3665  3440  3441 1
 3666  3438  3439 1
 3667  3438  3440 1
 3668  3436  3437 1
 3669  3436  3438 1
 3670  3436  3442 1
 3671  3434  3435 1
 3672  3432  3433 1
 3673  3432  3434 1
 3674  3430  3431 1
 3675  3430  3432 1
 3676  3428  3429 1
 3677  3428  3430 1
 3678  3426  3427 1
 3679  3426  3428 1
 3680  3425  3426 1
 3681  3425  3434 1
 3682  3423  3424 1
 3683  3423  3425 1
 3684  3423  3438 1
 3685  3422  3423 1
 3686  3420  3421 1
 3687  3420  3422 1
 3688  3420  3436 1
 3689  3417  3418 1
 3690  3417  3419 1
 3691  3417  3420 1
 3692  3416  3417 1
 3693  3413  3414 1
 3694  3413  3415 1
 3695  3413  3416 1
 3696  3475  3476 1
 3697  3473  3474 1
 3698  3471  3472 1
 3699  3471  3473 1
 3700  3469  3470 1
 3701  3469  3471 1
 3702  3469  3475 1
 3703  3467  3468 1
 3704  3465  3466 1
 3705  3465  3467 1
 3706  3464  3465 1
 3707  3461  3462 1
 3708  3461  3463 1
 3709  3460  3461 1
 3710  3460  3464 1
 3711  3459  3460 1
 3712  3459  3468 1
 3713  3458  3459 1
 3714  3456  3457 1
 3715  3456  3458 1
 3716  3455  3456 1
 3717  3455  3468 1
 3718  3453  3454 1
 3719  3453  3455 1
 3720  3453  3471 1
 3721  3452  3453 1
 3722  3450  3451 1
 3723  3450  3452 1
 3724  3450  3469 1
 3725  3447  3448 1
 3726  3447  3449 1
 3727  3447  3450 1
 3728  3446  3447 1
 3729  3443  3444 1
 3730  3443  3445 1
 3731  3443  3446 1
 3732  3509  3510 1
 3733  3507  3508 1
 3734  3505  3506 1
 3735  3505  3507 1
 3736  3503  3504 1
 3737  3503  3505 1
 3738  3503  3509 1
 3739  3501  3502 1
 3740  3498  3499 1
 3741  3498  3500 1
 3742  3497  3498 1
 3743  3497  3501 1
 3744  3495  3496 1
 3745  3495  3497 1
 3746  3493  3494 1
 3747  3493  3495 1
 3748  3492  3493 1
 3749  3492  3502 1
 3750  3491  3492 1
 3751  3489  3490 1
 3752  3489  3491 1
 3753  3488  3489 1
 3754  3488  3502 1
 3755  3486  3487 1
 3756  3486  3488 1
 3757  3486  3505 1
 3758  3485  3486 1
 3759  3483  3484 1
 3760  3483  3485 1
 3761  3483  3503 1
 3762  3480  3481 1
 3763  3480  3482 1
 3764  3480  3483 1
 3765  3479  3480 1
 3766  3476  3477 1
 3767  3476  3478 1
 3768  3476  3479 1
 3769  3542  3543 1
 3770  3540  3541 1
 3771  3538  3539 1
 3772  3538  3540 1
 3773  3536  3537 1
 3774  3536  3538 1
 3775  3536  3542 1
 3776  3534  3535 1
 3777  3532  3533 1
 3778  3532  3534 1
 3779  3531  3532 1
 3780  3528  3529 1
 3781  3528  3530 1
 3782  3527  3528 1
 3783  3527  3531 1
 3784  3526  3527 1
 3785  3526  3535 1
 3786  3525  3526 1
 3787  3523  3524 1
 3788  3523  3525 1
 3789  3522  3523 1
 3790  3522  3535 1
 3791  3520  3521 1
 3792  3520  3522 1
 3793  3520  3538 1
 3794  3519  3520 1
 3795  3517  3518 1
 3796  3517  3519 1
 3797  3517  3536 1
 3798  3514  3515 1
 3799  3514  3516 1
 3800  3514  3517 1
 3801  3513  3514 1
 3802  3510  3511 1
 3803  3510  3512 1
 3804  3510  3513 1
 3805  3575  3576 1
 3806  3573  3574 1
 3807  3571  3572 1
 3808  3571  3573 1
 3809  3569  3570 1
 3810  3569  3571 1
 3811  3569  3575 1
 3812  3567  3568 1
 3813  3565  3566 1
 3814  3565  3567 1
 3815  3564  3565 1
 3816  3561  3562 1
 3817  3561  3563 1
 3818  3560  3561 1
 3819  3560  3564 1
 3820  3559  3560 1
 3821  3559  3568 1
 3822  3558  3559 1
 3823  3556  3557 1
 3824  3556  3558 1
 3825  3555  3556 1
 3826  3555  3568 1
 3827  3553  3554 1
 3828  3553  3555 1
 3829  3553  3571 1
 3830  3552  3553 1
 3831  3550  3551 1
 3832  3550  3552 1
 3833  3550  3569 1
 3834  3547  3548 1
 3835  3547  3549 1
 3836  3547  3550 1
 3837  3546  3547 1
 3838  3543  3544 1
 3839  3543  3545 1
 3840  3543  3546 1
 3841  3605  3606 1
 3842  3603  3604 1
 3843  3601  3602 1
 3844  3601  3603 1
 3845  3599  3600 1
 3846  3599  3601 1
 3847  3599  3605 1
 3848  3597  3598 1
 3849  3595  3596 1
 3850  3595  3597 1
 3851  3593  3594 1
 3852  3593  3595 1
 3853  3591  3592 1
 3854  3591  3593 1
 3855  3589  3590 1
 3856  3589  3591 1
 3857  3588  3589 1
 3858  3588  3597 1
 3859  3586  3587 1
 3860  3586  3588 1
 3861  3586  3601 1
 3862  3585  3586 1
 3863  3583  3584 1
 3864  3583  3585 1
 3865  3583  3599 1
 3866  3580  3581 1
 3867  3580  3582 1
 3868  3580  3583 1
 3869  3579  3580 1
 3870  3576  3577 1
 3871  3576  3578 1
 3872  3576  3579 1
 3873  3639  3640 1
 3874  3637  3638 1
 3875  3635  3636 1
 3876  3635  3637 1
 3877  3633  3634 1
 3878  3633  3635 1
 3879  3633  3639 1
 3880  3631  3632 1
 3881  3628  3629 1
 3882  3628  3630 1
 3883  3627  3628 1
 3884  3627  3631 1
 3885  3625  3626 1
 3886  3625  3627 1
 3887  3623  3624 1
 3888  3623  3625 1
 3889  3622  3623 1
 3890  3622  3632 1
 3891  3621  3622 1
 3892  3619  3620 1
 3893  3619  3621 1
 3894  3618  3619 1
 3895  3618  3632 1
 3896  3616  3617 1
 3897  3616  3618 1
 3898  3616  3635 1
 3899  3615  3616 1
 3900  3613  3614 1
 3901  3613  3615 1
 3902  3613  3633 1
 3903  3610  3611 1
 3904  3610  3612 1
 3905  3610  3613 1
 3906  3609  3610 1
 3907  3606  3607 1
 3908  3606  3608 1
 3909  3606  3609 1
 3910  3672  3673 1
 3911  3670  3671 1
 3912  3668  3669 1
 3913  3668  3670 1
 3914  3666  3667 1
 3915  3666  3668 1
 3916  3666  3672 1
 3917  3664  3665 1
 3918  3662  3663 1
 3919  3662  3664 1
 3920  3661  3662 1
 3921  3658  3659 1
 3922  3658  3660 1
 3923  3657  3658 1
 3924  3657  3661 1
 3925  3656  3657 1
 3926  3656  3665 1
 3927  3655  3656 1
 3928  3653  3654 1
 3929  3653  3655 1
 3930  3652  3653 1
 3931  3652  3665 1
 3932  3650  3651 1
 3933  3650  3652 1
 3934  3650  3668 1
 3935  3649  3650 1
 3936  3647  3648 1
 3937  3647  3649 1
 3938  3647  3666 1
 3939  3644  3645 1
 3940  3644  3646 1
 3941  3644  3647 1
 3942  3643  3644 1
 3943  3640  3641 1
 3944  3640  3642 1
 3945  3640  3643 1
 3946  3706  3707 1
 3947  3704  3705 1
 3948  3702  3703 1
 3949  3702  3704 1
 3950  3700  3701 1
 3951  3700  3702 1
 3952  3700  3706 1
 3953  3698  3699 1
 3954  3695  3696 1
 3955  3695  3697 1
 3956  3694  3695 1
 3957  3694  3698 1
 3958  3692  3693 1
 3959  3692  3694 1
 3960  3690  3691 1
 3961  3690  3692 1
 3962  3689  3690 1
 3963  3689  3699 1
 3964  3688  3689 1
 3965  3686  3687 1
 3966  3686  3688 1
 3967  3685  3686 1
 3968  3685  3699 1
 3969  3683  3684 1
 3970  3683  3685 1
 3971  3683  3702 1
 3972  3682  3683 1
 3973  3680  3681 1
 3974  3680  3682 1
 3975  3680  3700 1
 3976  3677  3678 1
 3977  3677  3679 1
 3978  3677  3680 1
 3979  3676  3677 1
 3980  3673  3674 1
 3981  3673  3675 1
 3982  3673  3676 1
 3983  3736  3737 1
 3984  3734  3735 1
 3985  3732  3733 1
 3986  3732  3734 1
 3987  3730  3731 1
 3988  3730  3732 1
 3989  3730  3736 1
 3990  3728  3729 1
 3991  3726  3727 1
 3992  3726  3728 1
 3993  3724  3725 1
 3994  3724  3726 1
 3995  3722  3723 1
 3996  3722  3724 1
 3997  3720  3721 1
 3998  3720  3722 1
 3999  3719  3720 1
 4000  3719  3728 1
 4001  3717  3718 1
 4002  3717  3719 1
 4003  3717  3732 1
 4004  3716  3717 1
 4005  3714  3715 1
 4006  3714  3716 1
 4007  3714  3730 1
 4008  3711  3712 1
 4009  3711  3713 1
 4010  3711  3714 1
 4011  3710  3711 1
 4012  3707  3708 1
 4013  3707  3709 1
 4014  3707  3710 1
 4015  3766  3767 1
 4016  3764  3765 1
 4017  3762  3763 1
 4018  3762  3764 1
 4019  3760  3761 1
 4020  3760  3762 1
 4021  3760  3766 1
 4022  3758  3759 1
 4023  3756  3757 1
 4024  3756  3758 1
 4025  3754  3755 1
 4026  3754  3756 1
 4027  3752  3753 1
 4028  3752  3754 1
 4029  3750  3751 1
 4030  3750  3752 1
 4031  3749  3750 1
 4032  3749  3758 1
 4033  3747  3748 1
 4034  3747  3749 1
 4035  3747  3762 1
 4036  3746  3747 1
 4037  3744  3745 1
 4038  3744  3746 1
 4039  3744  3760 1
 4040  3741  3742 1
 4041  3741  3743 1
 4042  3741  3744 1
 4043  3740  3741 1
 4044  3737  3738 1
 4045  3737  3739 1
 4046  3737  3740 1
 4047  3800  3801 1
 4048  3798  3799 1
 4049  3796  3797 1
 4050  3796  3798 1
 4051  3794  3795 1
 4052  3794  3796 1
 4053  3794  3800 1
 4054  3792  3793 1
 4055  3789  3790 1
 4056  3789  3791 1
 4057  3788  3789 1
 4058  3788  3792 1
 4059  3786  3787 1
 4060  3786  3788 1
 4061  3784  3785 1
 4062  3784  3786 1
 4063  3783  3784 1
 4064  3783  3793 1
 4065  3782  3783 1
 4066  3780  3781 1
 4067  3780  3782 1
 4068  3779  3780 1
 4069  3779  3793 1
 4070  3777  3778 1
 4071  3777  3779 1
 4072  3777  3796 1
 4073  3776  3777 1
 4074  3774  3775 1
 4075  3774  3776 1
 4076  3774  3794 1
 4077  3771  3772 1
 4078  3771  3773 1
 4079  3771  3774 1
 4080  3770  3771 1
 4081  3767  3768 1
 4082  3767  3769 1
 4083  3767  3770 1
 4084  3833  3834 1
 4085  3831  3832 1
 4086  3829  3830 1
 4087  3829  3831 1
 4088  3827  3828 1
 4089  3827  3829 1
 4090  3827  3833 1
 4091  3825  3826 1
 4092  3823  3824 1
 4093  3823  3825 1
 4094  3822  3823 1
 4095  3819  3820 1
 4096  3819  3821 1
 4097  3818  3819 1
 4098  3818  3822 1
 4099  3817  3818 1
 4100  3817  3826 1
 4101  3816  3817 1
 4102  3814  3815 1
 4103  3814  3816 1
 4104  3813  3814 1
 4105  3813  3826 1
 4106  3811  3812 1
 4107  3811  3813 1
 4108  3811  3829 1
 4109  3810  3811 1
 4110  3808  3809 1
 4111  3808  3810 1
 4112  3808  3827 1
 4113  3805  3806 1
 4114  3805  3807 1
 4115  3805  3808 1
 4116  3804  3805 1
 4117  3801  3802 1
 4118  3801  3803 1
 4119  3801  3804 1
 4120  3866  3867 1
 4121  3864  3865 1
 4122  3862  3863 1
 4123  3862  3864 1
 4124  3860  3861 1
 4125  3860  3862 1
 4126  3860  3866 1
 4127  3858  3859 1
 4128  3856  3857 1
 4129  3856  3858 1
 4130  3855  3856 1
 4131  3852  3853 1
 4132  3852  3854 1
 4133  3851  3852 1
 4134  3851  3855 1
 4135  3850  3851 1
 4136  3850  3859 1
 4137  3849  3850 1
 4138  3847  3848 1
 4139  3847  3849 1
 4140  3846  3847 1
 4141  3846  3859 1
 4142  3844  3845 1
 4143  3844  3846 1
 4144  3844  3862 1
 4145  3843  3844 1
 4146  3841  3842 1
 4147  3841  3843 1
 4148  3841  3860 1
 4149  3838  3839 1
 4150  3838  3840 1
 4151  3838  3841 1
 4152  3837  3838 1
 4153  3834  3835 1
 4154  3834  3836 1
 4155  3834  3837 1
 4156  3900  3901 1
 4157  3898  3899 1
 4158  3896  3897 1
 4159  3896  3898 1
 4160  3894  3895 1
 4161  3894  3896 1
 4162  3894  3900 1
 4163  3892  3893 1
 4164  3889  3890 1
 4165  3889  3891 1
 4166  3888  3889 1
 4167  3888  3892 1
 4168  3886  3887 1
 4169  3886  3888 1
 4170  3884  3885 1
 4171  3884  3886 1
 4172  3883  3884 1
 4173  3883  3893 1
 4174  3882  3883 1
 4175  3880  3881 1
 4176  3880  3882 1
 4177  3879  3880 1
 4178  3879  3893 1
 4179  3877  3878 1
 4180  3877  3879 1
 4181  3877  3896 1
 4182  3876  3877 1
 4183  3874  3875 1
 4184  3874  3876 1
 4185  3874  3894 1
 4186  3871  3872 1
 4187  3871  3873 1
 4188  3871  3874 1
 4189  3870  3871 1
 4190  3867  3868 1
 4191  3867  3869 1
 4192  3867  3870 1
 4193  3930  3931 1
 4194  3928  3929 1
 4195  3926  3927 1
 4196  3926  3928 1
 4197  3924  3925 1
 4198  3924  3926 1
 4199  3924  3930 1
 4200  3922  3923 1
 4201  3920  3921 1
 4202  3920  3922 1
 4203  3918  3919 1
 4204  3918  3920 1
 4205  3916  3917 1
 4206  3916  3918 1
 4207  3914  3915 1
 4208  3914  3916 1
 4209  3913  3914 1
 4210  3913  3922 1
 4211  3911  3912 1
 4212  3911  3913 1
 4213  3911  3926 1
 4214  3910  3911 1
 4215  3908  3909 1
 4216  3908  3910 1
 4217  3908  3924 1
 4218  3905  3906 1
 4219  3905  3907 1
 4220  3905  3908 1
 4221  3904  3905 1
 4222  3901  3902 1
 4223  3901  3903 1
 4224  3901  3904 1
 4225  3963  3964 1
 4226  3961  3962 1
 4227  3959  3960 1
 4228  3959  3961 1
 4229  3957  3958 1
 4230  3957  3959 1
 4231  3957  3963 1
 4232  3955  3956 1
 4233  3953  3954 1
 4234  3953  3955 1
 4235  3952  3953 1
 4236  3949  3950 1
 4237  3949  3951 1
 4238  3948  3949 1
 4239  3948  3952 1
 4240  3947  3948 1
 4241  3947  3956 1
 4242  3946  3947 1
 4243  3944  3945 1
 4244  3944  3946 1
 4245  3943  3944 1
 4246  3943  3956 1
 4247  3941  3942 1
 4248  3941  3943 1
 4249  3941  3959 1
 4250  3940  3941 1
 4251  3938  3939 1
 4252  3938  3940 1
 4253  3938  3957 1
 4254  3935  3936 1
 4255  3935  3937 1
 4256  3935  3938 1
 4257  3934  3935 1
 4258  3931  3932 1
 4259  3931  3933 1
 4260  3931  3934 1
 4261  3993  3994 1
 4262  3991  3992 1
 4263  3989  3990 1
 4264  3989  3991 1
 4265  3987  3988 1
 4266  3987  3989 1
 4267  3987  3993 1
 4268  3985  3986 1
 4269  3983  3984 1
 4270  3983  3985 1
 4271  3981  3982 1
 4272  3981  3983 1
 4273  3979  3980 1
 4274  3979  3981 1
 4275  3977  3978 1
 4276  3977  3979 1
 4277  3976  3977 1
 4278  3976  3985 1
 4279  3974  3975 1
 4280  3974  3976 1
 4281  3974  3989 1
 4282  3973  3974 1
 4283  3971  3972 1
 4284  3971  3973 1
 4285  3971  3987 1
 4286  3968  3969 1
 4287  3968  3970 1
 4288  3968  3971 1
 4289  3967  3968 1
 4290  3964  3965 1
 4291  3964  3966 1
 4292  3964  3967 1
 4293  4026  4027 1
 4294  4024  4025 1
 4295  4022  4023 1
 4296  4022  4024 1
 4297  4020  4021 1
 4298  4020  4022 1
 4299  4020  4026 1
 4300  4018  4019 1
 4301  4016  4017 1
 4302  4016  4018 1
 4303  4015  4016 1
 4304  4012  4013 1
 4305  4012  4014 1
 4306  4011  4012 1
 4307  4011  4015 1
 4308  4010  4011 1
 4309  4010  4019 1
 4310  4009  4010 1
 4311  4007  4008 1
 4312  4007  4009 1
 4313  4006  4007 1
 4314  4006  4019 1
 4315  4004  4005 1
 4316  4004  4006 1
 4317  4004  4022 1
 4318  4003  4004 1
 4319  4001  4002 1
 4320  4001  4003 1
 4321  4001  4020 1
 4322  3998  3999 1
 4323  3998  4000 1
 4324  3998  4001 1
 4325  3997  3998 1
 4326  3994  3995 1
 4327  3994  3996 1
 4328  3994  3997 1
 4329  4056  4057 1
 4330  4054  4055 1
 4331  4052  4053 1
 4332  4052  4054 1
 4333  4050  4051 1
 4334  4050  4052 1
 4335  4050  4056 1
 4336  4048  4049 1
 4337  4047  4048 1
 4338  4044  4045 1
 4339  4044  4046 1
 4340  4043  4044 1
 4341  4043  4047 1
 4342  4041  4042 1
 4343  4041  4043 1
 4344  4039  4040 1
 4345  4039  4041 1
 4346  4038  4039 1
 4347  4038  4048 1
 4348  4036  4037 1
 4349  4036  4038 1
 4350  4036  4052 1
 4351  4035  4036 1
 4352  4033  4034 1
 4353  4033  4035 1
 4354  4033  4050 1
 4355  4030  4031 1
 4356  4030  4032 1
 4357  4030  4033 1
 4358  4029  4030 1
 4359  4028  4029 1
 4360  4089  4090 1
 4361  4087  4088 1
 4362  4085  4086 1
 4363  4085  4087 1
 4364  4083  4084 1
 4365  4083  4085 1
 4366  4083  4089 1
 4367  4081  4082 1
 4368  4079  4080 1
 4369  4079  4081 1
 4370  4078  4079 1
 4371  4075  4076 1
 4372  4075  4077 1
 4373  4074  4075 1
 4374  4074  4078 1
 4375  4073  4074 1
 4376  4073  4082 1
 4377  4072  4073 1
 4378  4070  4071 1
 4379  4070  4072 1
 4380  4069  4070 1
 4381  4069  4082 1
 4382  4067  4068 1
 4383  4067  4069 1
 4384  4067  4085 1
 4385  4066  4067 1
 4386  4064  4065 1
 4387  4064  4066 1
 4388  4064  4083 1
 4389  4061  4062 1
 4390  4061  4063 1
 4391  4061  4064 1
 4392  4060  4061 1
 4393  4057  4058 1
 4394  4057  4059 1
 4395  4057  4060 1
 4396  4123  4124 1
 4397  4121  4122 1
 4398  4119  4120 1
 4399  4119  4121 1
 4400  4117  4118 1
 4401  4117  4119 1
 4402  4117  4123 1
 4403  4115  4116 1
 4404  4112  4113 1
 4405  4112  4114 1
 4406  4111  4112 1
 4407  4111  4115 1
 4408  4109  4110 1
 4409  4109  4111 1
 4410  4107  4108 1
 4411  4107  4109 1
 4412  4106  4107 1
 4413  4106  4116 1
 4414  4105  4106 1
 4415  4103  4104 1
 4416  4103  4105 1
 4417  4102  4103 1
 4418  4102  4116 1
 4419  4100  4101 1
 4420  4100  4102 1
 4421  4100  4119 1
 4422  4099  4100 1
 4423  4097  4098 1
 4424  4097  4099 1
 4425  4097  4117 1
 4426  4094  4095 1
 4427  4094  4096 1
 4428  4094  4097 1
 4429  4093  4094 1
 4430  4090  4091 1
 4431  4090  4092 1
 4432  4090  4093 1
 4433  4156  4157 1
 4434  4154  4155 1
 4435  4152  4153 1
 4436  4152  4154 1
 4437  4150  4151 1
 4438  4150  4152 1
 4439  4150  4156 1
 4440  4148  4149 1
 4441  4146  4147 1
 4442  4146  4148 1
 4443  4145  4146 1
 4444  4142  4143 1
 4445  4142  4144 1
 4446  4141  4142 1
 4447  4141  4145 1
 4448  4140  4141 1
 4449  4140  4149 1
 4450  4139  4140 1
 4451  4137  4138 1
 4452  4137  4139 1
 4453  4136  4137 1
 4454  4136  4149 1
 4455  4134  4135 1
 4456  4134  4136 1
 4457  4134  4152 1
 4458  4133  4134 1
 4459  4131  4132 1
 4460  4131  4133 1
 4461  4131  4150 1
 4462  4128  4129 1
 4463  4128  4130 1
 4464  4128  4131 1
 4465  4127  4128 1
 4466  4124  4125 1
 4467  4124  4126 1
 4468  4124  4127 1
 4469  4189  4190 1
 4470  4187  4188 1
 4471  4185  4186 1
 4472  4185  4187 1
 4473  4183  4184 1
 4474  4183  4185 1
 4475  4183  4189 1
 4476  4181  4182 1
 4477  4179  4180 1
 4478  4179  4181 1
 4479  4178  4179 1
 4480  4175  4176 1
 4481  4175  4177 1
 4482  4174  4175 1
 4483  4174  4178 1
 4484  4173  4174 1
 4485  4173  4182 1
 4486  4172  4173 1
 4487  4170  4171 1
 4488  4170  4172 1
 4489  4169  4170 1
 4490  4169  4182 1
 4491  4167  4168 1
 4492  4167  4169 1
 4493  4167  4185 1
 4494  4166  4167 1
 4495  4164  4165 1
 4496  4164  4166 1
 4497  4164  4183 1
 4498  4161  4162 1
 4499  4161  4163 1
 4500  4161  4164 1
 4501  4160  4161 1
 4502  4157  4158 1
 4503  4157  4159 1
 4504  4157  4160 1
 4505  4222  4223 1
 4506  4220  4221 1
 4507  4218  4219 1
 4508  4218  4220 1
 4509  4216  4217 1
 4510  4216  4218 1
 4511  4216  4222 1
 4512  4214  4215 1
 4513  4212  4213 1
 4514  4212  4214 1
 4515  4211  4212 1
 4516  4208  4209 1
 4517  4208  4210 1
 4518  4207  4208 1
 4519  4207  4211 1
 4520  4206  4207 1
 4521  4206  4215 1
 4522  4205  4206 1
 4523  4203  4204 1
 4524  4203  4205 1
 4525  4202  4203 1
 4526  4202  4215 1
 4527  4200  4201 1
 4528  4200  4202 1
 4529  4200  4218 1
 4530  4199  4200 1
 4531  4197  4198 1
 4532  4197  4199 1
 4533  4197  4216 1
 4534  4194  4195 1
 4535  4194  4196 1
 4536  4194  4197 1
 4537  4193  4194 1
 4538  4190  4191 1
 4539  4190  4192 1
 4540  4190  4193 1
 4541  4252  4253 1
 4542  4250  4251 1
 4543  4248  4249 1
 4544  4248  4250 1
 4545  4246  4247 1
 4546  4246  4248 1
 4547  4246  4252 1
 4548  4244  4245 1
 4549  4242  4243 1
 4550  4242  4244 1
 4551  4240  4241 1
 4552  4240  4242 1
 4553  4238  4239 1
 4554  4238  4240 1
 4555  4236  4237 1
 4556  4236  4238 1
 4557  4235  4236 1
 4558  4235  4244 1
 4559  4233  4234 1
 4560  4233  4235 1
 4561  4233  4248 1
 4562  4232  4233 1
 4563  4230  4231 1
 4564  4230  4232 1
 4565  4230  4246 1
 4566  4227  4228 1
 4567  4227  4229 1
 4568  4227  4230 1
 4569  4226  4227 1
 4570  4223  4224 1
 4571  4223  4225 1
 4572  4223  4226 1
 4573  4282  4283 1
 4574  4280  4281 1
 4575  4278  4279 1
 4576  4278  4280 1
 4577  4276  4277 1
 4578  4276  4278 1
 4579  4276  4282 1
 4580  4274  4275 1
 4581  4272  4273 1
 4582  4272  4274 1
 4583  4270  4271 1
 4584  4270  4272 1
 4585  4268  4269 1
 4586  4268  4270 1
 4587  4266  4267 1
 4588  4266  4268 1
 4589  4265  4266 1
 4590  4265  4274 1
 4591  4263  4264 1
 4592  4263  4265 1
 4593  4263  4278 1
 4594  4262  4263 1
 4595  4260  4261 1
 4596  4260  4262 1
 4597  4260  4276 1
 4598  4257  4258 1
 4599  4257  4259 1
 4600  4257  4260 1
 4601  4256  4257 1
 4602  4253  4254 1
 4603  4253  4255 1
 4604  4253  4256 1
 4605  4315  4316 1
 4606  4313  4314 1
 4607  4311  4312 1
 4608  4311  4313 1
 4609  4309  4310 1
 4610  4309  4311 1
 4611  4309  4315 1
 4612  4307  4308 1
 4613  4305  4306 1
 4614  4305  4307 1
 4615  4304  4305 1
 4616  4301  4302 1
 4617  4301  4303 1
 4618  4300  4301 1
 4619  4300  4304 1
 4620  4299  4300 1
 4621  4299  4308 1
 4622  4298  4299 1
 4623  4296  4297 1
 4624  4296  4298 1
 4625  4295  4296 1
 4626  4295  4308 1
 4627  4293  4294 1
 4628  4293  4295 1
 4629  4293  4311 1
 4630  4292  4293 1
 4631  4290  4291 1
 4632  4290  4292 1
 4633  4290  4309 1
 4634  4287  4288 1
 4635  4287  4289 1
 4636  4287  4290 1
 4637  4286  4287 1
 4638  4283  4284 1
 4639  4283  4285 1
 4640  4283  4286 1
 4641  4348  4349 1
 4642  4346  4347 1
 4643  4344  4345 1
 4644  4344  4346 1
 4645  4342  4343 1
 4646  4342  4344 1
 4647  4342  4348 1
 4648  4340  4341 1
 4649  4338  4339 1
 4650  4338  4340 1
 4651  4337  4338 1
 4652  4334  4335 1
 4653  4334  4336 1
 4654  4333  4334 1
 4655  4333  4337 1
 4656  4332  4333 1
 4657  4332  4341 1
 4658  4331  4332 1
 4659  4329  4330 1
 4660  4329  4331 1
 4661  4328  4329 1
 4662  4328  4341 1
 4663  4326  4327 1
 4664  4326  4328 1
 4665  4326  4344 1
 4666  4325  4326 1
 4667  4323  4324 1
 4668  4323  4325 1
 4669  4323  4342 1
 4670  4320  4321 1
 4671  4320  4322 1
 4672  4320  4323 1
 4673  4319  4320 1
 4674  4316  4317 1
 4675  4316  4318 1
 4676  4316  4319 1
 4677  4379  4380 1
 4678  4377  4378 1
 4679  4375  4376 1
 4680  4375  4377 1
 4681  4373  4374 1
 4682  4373  4375 1
 4683  4373  4379 1
 4684  4371  4372 1
 4685  4370  4371 1
 4686  4367  4368 1
 4687  4367  4369 1
 4688  4366  4367 1
 4689  4366  4370 1
 4690  4364  4365 1
 4691  4364  4366 1
 4692  4362  4363 1
 4693  4362  4364 1
 4694  4361  4362 1
 4695  4361  4371 1
 4696  4359  4360 1
 4697  4359  4361 1
 4698  4359  4375 1
 4699  4358  4359 1
 4700  4356  4357 1
 4701  4356  4358 1
 4702  4356  4373 1
 4703  4353  4354 1
 4704  4353  4355 1
 4705  4353  4356 1
 4706  4352  4353 1
 4707  4349  4350 1
 4708  4349  4351 1
 4709  4349  4352 1
 4710  4409  4410 1
 4711  4407  4408 1
 4712  4405  4406 1
 4713  4405  4407 1
 4714  4403  4404 1
 4715  4403  4405 1
 4716  4403  4409 1
 4717  4401  4402 1
 4718  4399  4400 1
 4719  4399  4401 1
 4720  4397  4398 1
 4721  4397  4399 1
 4722  4395  4396 1
 4723  4395  4397 1
 4724  4393  4394 1
 4725  4393  4395 1
 4726  4392  4393 1
 4727  4392  4401 1
 4728  4390  4391 1
 4729  4390  4392 1
 4730  4390  4405 1
 4731  4389  4390 1
 4732  4387  4388 1
 4733  4387  4389 1
 4734  4387  4403 1
 4735  4384  4385 1
 4736  4384  4386 1
 4737  4384  4387 1
 4738  4383  4384 1
 4739  4380  4381 1
 4740  4380  4382 1
 4741  4380  4383 1
 4742  4442  4443 1
 4743  4440  4441 1
 4744  4438  4439 1
 4745  4438  4440 1
 4746  4436  4437 1
 4747  4436  4438 1
 4748  4436  4442 1
 4749  4434  4435 1
 4750  4432  4433 1
 4751  4432  4434 1
 4752  4431  4432 1
 4753  4428  4429 1
 4754  4428  4430 1
 4755  4427  4428 1
 4756  4427  4431 1
 4757  4426  4427 1
 4758  4426  4435 1
 4759  4425  4426 1
 4760  4423  4424 1
 4761  4423  4425 1
 4762  4422  4423 1
 4763  4422  4435 1
 4764  4420  4421 1
 4765  4420  4422 1
 4766  4420  4438 1
 4767  4419  4420 1
 4768  4417  4418 1
 4769  4417  4419 1
 4770  4417  4436 1
 4771  4414  4415 1
 4772  4414  4416 1
 4773  4414  4417 1
 4774  4413  4414 1
 4775  4410  4411 1
 4776  4410  4412 1
 4777  4410  4413 1
 4778  4475  4476 1
 4779  4473  4474 1
 4780  4471  4472 1
 4781  4471  4473 1
 4782  4469  4470 1
 4783  4469  4471 1
 4784  4469  4475 1
 4785  4467  4468 1
 4786  4465  4466 1
 4787  4465  4467 1
 4788  4464  4465 1
 4789  4461  4462 1
 4790  4461  4463 1
 4791  4460  4461 1
 4792  4460  4464 1
 4793  4459  4460 1
 4794  4459  4468 1
 4795  4458  4459 1
 4796  4456  4457 1
 4797  4456  4458 1
 4798  4455  4456 1
 4799  4455  4468 1
 4800  4453  4454 1
 4801  4453  4455 1
 4802  4453  4471 1
 4803  4452  4453 1
 4804  4450  4451 1
 4805  4450  4452 1
 4806  4450  4469 1
 4807  4447  4448 1
 4808  4447  4449 1
 4809  4447  4450 1
 4810  4446  4447 1
 4811  4443  4444 1
 4812  4443  4445 1
 4813  4443  4446 1
 4814  4508  4509 1
 4815  4506  4507 1
 4816  4504  4505 1
 4817  4504  4506 1
 4818  4502  4503 1
 4819  4502  4504 1
 4820  4502  4508 1
 4821  4500  4501 1
 4822  4498  4499 1
 4823  4498  4500 1
 4824  4497  4498 1
 4825  4494  4495 1
 4826  4494  4496 1
 4827  4493  4494 1
 4828  4493  4497 1
 4829  4492  4493 1
 4830  4492  4501 1
 4831  4491  4492 1
 4832  4489  4490 1
 4833  4489  4491 1
 4834  4488  4489 1
 4835  4488  4501 1
 4836  4486  4487 1
 4837  4486  4488 1
 4838  4486  4504 1
 4839  4485  4486 1
 4840  4483  4484 1
 4841  4483  4485 1
 4842  4483  4502 1
 4843  4480  4481 1
 4844  4480  4482 1
 4845  4480  4483 1
 4846  4479  4480 1
 4847  4476  4477 1
 4848  4476  4478 1
 4849  4476  4479 1
 4850  4542  4543 1
 4851  4540  4541 1
 4852  4538  4539 1
 4853  4538  4540 1
 4854  4536  4537 1
 4855  4536  4538 1
 4856  4536  4542 1
 4857  4534  4535 1
 4858  4531  4532 1
 4859  4531  4533 1
 4860  4530  4531 1
 4861  4530  4534 1
 4862  4528  4529 1
 4863  4528  4530 1
 4864  4526  4527 1
 4865  4526  4528 1
 4866  4525  4526 1
 4867  4525  4535 1
 4868  4524  4525 1
 4869  4522  4523 1
 4870  4522  4524 1
 4871  4521  4522 1
 4872  4521  4535 1
 4873  4519  4520 1
 4874  4519  4521 1
 4875  4519  4538 1
 4876  4518  4519 1
 4877  4516  4517 1
 4878  4516  4518 1
 4879  4516  4536 1
 4880  4513  4514 1
 4881  4513  4515 1
 4882  4513  4516 1
 4883  4512  4513 1
 4884  4509  4510 1
 4885  4509  4511 1
 4886  4509  4512 1
 4887  4575  4576 1
 4888  4573  4574 1
 4889  4571  4572 1
 4890  4571  4573 1
 4891  4569  4570 1
 4892  4569  4571 1
 4893  4569  4575 1
 4894  4567  4568 1
 4895  4565  4566 1
 4896  4565  4567 1
 4897  4564  4565 1
 4898  4561  4562 1
 4899  4561  4563 1
 4900  4560  4561 1
 4901  4560  4564 1
 4902  4559  4560 1
 4903  4559  4568 1
 4904  4558  4559 1
 4905  4556  4557 1
 4906  4556  4558 1
 4907  4555  4556 1
 4908  4555  4568 1
 4909  4553  4554 1
 4910  4553  4555 1
 4911  4553  4571 1
 4912  4552  4553 1
 4913  4550  4551 1
 4914  4550  4552 1
 4915  4550  4569 1
 4916  4547  4548 1
 4917  4547  4549 1
 4918  4547  4550 1
 4919  4546  4547 1
 4920  4543  4544 1
 4921  4543  4545 1
 4922  4543  4546 1
 4923  4608  4609 1
 4924  4606  4607 1
 4925  4604  4605 1
 4926  4604  4606 1
 4927  4602  4603 1
 4928  4602  4604 1
 4929  4602  4608 1
 4930  4600  4601 1
 4931  4598  4599 1
 4932  4598  4600 1
 4933  4597  4598 1
 4934  4594  4595 1
 4935  4594  4596 1
 4936  4593  4594 1
 4937  4593  4597 1
 4938  4592  4593 1
 4939  4592  4601 1
 4940  4591  4592 1
 4941  4589  4590 1
 4942  4589  4591 1
 4943  4588  4589 1
 4944  4588  4601 1
 4945  4586  4587 1
 4946  4586  4588 1
 4947  4586  4604 1
 4948  4585  4586 1
 4949  4583  4584 1
 4950  4583  4585 1
 4951  4583  4602 1
 4952  4580  4581 1
 4953  4580  4582 1
 4954  4580  4583 1
 4955  4579  4580 1
 4956  4576  4577 1
 4957  4576  4578 1
 4958  4576  4579 1
 4959  4642  4643 1
 4960  4640  4641 1
 4961  4638  4639 1
 4962  4638  4640 1
 4963  4636  4637 1
 4964  4636  4638 1
 4965  4636  4642 1
 4966  4634  4635 1
 4967  4631  4632 1
 4968  4631  4633 1
 4969  4630  4631 1
 4970  4630  4634 1
 4971  4628  4629 1
 4972  4628  4630 1
 4973  4626  4627 1
 4974  4626  4628 1
 4975  4625  4626 1
 4976  4625  4635 1
 4977  4624  4625 1
 4978  4622  4623 1
 4979  4622  4624 1
 4980  4621  4622 1
 4981  4621  4635 1
 4982  4619  4620 1
 4983  4619  4621 1
 4984  4619  4638 1
 4985  4618  4619 1
 4986  4616  4617 1
 4987  4616  4618 1
 4988  4616  4636 1
 4989  4613  4614 1
 4990  4613  4615 1
 4991  4613  4616 1
 4992  4612  4613 1
 4993  4609  4610 1
 4994  4609  4611 1
 4995  4609  4612 1
 4996  4673  4674 1
 4997  4671  4672 1
 4998  4669  4670 1
 4999  4669  4671 1
 5000  4667  4668 1
 5001  4667  4669 1
 5002  4667  4673 1
 5003  4665  4666 1
 5004  4664  4665 1
 5005  4661  4662 1
 5006  4661  4663 1
 5007  4660  4661 1
 5008  4660  4664 1
 5009  4658  4659 1
 5010  4658  4660 1
 5011  4656  4657 1
 5012  4656  4658 1
 5013  4655  4656 1
 5014  4655  4665 1
 5015  4653  4654 1
 5016  4653  4655 1
 5017  4653  4669 1
 5018  4652  4653 1
 5019  4650  4651 1
 5020  4650  4652 1
 5021  4650  4667 1
 5022  4647  4648 1
 5023  4647  4649 1
 5024  4647  4650 1
 5025  4646  4647 1
 5026  4643  4644 1
 5027  4643  4645 1
 5028  4643  4646 1
 5029  4707  4708 1
 5030  4705  4706 1
 5031  4703  4704 1
 5032  4703  4705 1
 5033  4701  4702 1
 5034  4701  4703 1
 5035  4701  4707 1
 5036  4699  4700 1
 5037  4696  4697 1
 5038  4696  4698 1
 5039  4695  4696 1
 5040  4695  4699 1
 5041  4693  4694 1
 5042  4693  4695 1
 5043  4691  4692 1
 5044  4691  4693 1
 5045  4690  4691 1
 5046  4690  4700 1
 5047  4689  4690 1
 5048  4687  4688 1
 5049  4687  4689 1
 5050  4686  4687 1
 5051  4686  4700 1
 5052  4684  4685 1
 5053  4684  4686 1
 5054  4684  4703 1
 5055  4683  4684 1
 5056  4681  4682 1
 5057  4681  4683 1
 5058  4681  4701 1
 5059  4678  4679 1
 5060  4678  4680 1
 5061  4678  4681 1
 5062  4677  4678 1
 5063  4674  4675 1
 5064  4674  4676 1
 5065  4674  4677 1
 5066  4741  4742 1
 5067  4739  4740 1
 5068  4737  4738 1
 5069  4737  4739 1
 5070  4735  4736 1
 5071  4735  4737 1
 5072  4735  4741 1
 5073  4733  4734 1
 5074  4730  4731 1
 5075  4730  4732 1
 5076  4729  4730 1
 5077  4729  4733 1
 5078  4727  4728 1
 5079  4727  4729 1
 5080  4725  4726 1
 5081  4725  4727 1
 5082  4724  4725 1
 5083  4724  4734 1
 5084  4723  4724 1
 5085  4721  4722 1
 5086  4721  4723 1
 5087  4720  4721 1
 5088  4720  4734 1
 5089  4718  4719 1
 5090  4718  4720 1
 5091  4718  4737 1
 5092  4717  4718 1
 5093  4715  4716 1
 5094  4715  4717 1
 5095  4715  4735 1
 5096  4712  4713 1
 5097  4712  4714 1
 5098  4712  4715 1
 5099  4711  4712 1
 5100  4708  4709 1
 5101  4708  4710 1
 5102  4708  4711 1
 5103  4772  4773 1
 5104  4770  4771 1
 5105  4768  4769 1
 5106  4768  4770 1
 5107  4766  4767 1
 5108  4766  4768 1
 5109  4766  4772 1
 5110  4764  4765 1
 5111  4763  4764 1
 5112  4760  4761 1
 5113  4760  4762 1
 5114  4759  4760 1
 5115  4759  4763 1
 5116  4757  4758 1
 5117  4757  4759 1
 5118  4755  4756 1
 5119  4755  4757 1
 5120  4754  4755 1
 5121  4754  4764 1
 5122  4752  4753 1
 5123  4752  4754 1
 5124  4752  4768 1
 5125  4751  4752 1
 5126  4749  4750 1
 5127  4749  4751 1
 5128  4749  4766 1
 5129  4746  4747 1
 5130  4746  4748 1
 5131  4746  4749 1
 5132  4745  4746 1
 5133  4742  4743 1
 5134  4742  4744 1
 5135  4742  4745 1
 5136  4805  4806 1
 5137  4803  4804 1
 5138  4801  4802 1
 5139  4801  4803 1
 5140  4799  4800 1
 5141  4799  4801 1
 5142  4799  4805 1
 5143  4797  4798 1
 5144  4795  4796 1
 5145  4795  4797 1
 5146  4794  4795 1
 5147  4791  4792 1
 5148  4791  4793 1
 5149  4790  4791 1
 5150  4790  4794 1
 5151  4789  4790 1
 5152  4789  4798 1
 5153  4788  4789 1
 5154  4786  4787 1
 5155  4786  4788 1
 5156  4785  4786 1
 5157  4785  4798 1
 5158  4783  4784 1
 5159  4783  4785 1
 5160  4783  4801 1
 5161  4782  4783 1
 5162  4780  4781 1
 5163  4780  4782 1
 5164  4780  4799 1
 5165  4777  4778 1
 5166  4777  4779 1
 5167  4777  4780 1
 5168  4776  4777 1
 5169  4773  4774 1
 5170  4773  4775 1
 5171  4773  4776 1
 5172  4839  4840 1
 5173  4837  4838 1
 5174  4835  4836 1
 5175  4835  4837 1
 5176  4833  4834 1
 5177  4833  4835 1
 5178  4833  4839 1
 5179  4831  4832 1
 5180  4828  4829 1
 5181  4828  4830 1
 5182  4827  4828 1
 5183  4827  4831 1
 5184  4825  4826 1
 5185  4825  4827 1
 5186  4823  4824 1
 5187  4823  4825 1
 5188  4822  4823 1
 5189  4822  4832 1
 5190  4821  4822 1
 5191  4819  4820 1
 5192  4819  4821 1
 5193  4818  4819 1
 5194  4818  4832 1
 5195  4816  4817 1
 5196  4816  4818 1
 5197  4816  4835 1
 5198  4815  4816 1
 5199  4813  4814 1
 5200  4813  4815 1
 5201  4813  4833 1
 5202  4810  4811 1
 5203  4810  4812 1
 5204  4810  4813 1
 5205  4809  4810 1
 5206  4806  4807 1
 5207  4806  4808 1
 5208  4806  4809 1
 5209  4872  4873 1
 5210  4870  4871 1
 5211  4868  4869 1
 5212  4868  4870 1
 5213  4866  4867 1
 5214  4866  4868 1
 5215  4866  4872 1
 5216  4864  4865 1
 5217  4862  4863 1
 5218  4862  4864 1
 5219  4861  4862 1
 5220  4858  4859 1
 5221  4858  4860 1
 5222  4857  4858 1
 5223  4857  4861 1
 5224  4856  4857 1
 5225  4856  4865 1
 5226  4855  4856 1
 5227  4853  4854 1
 5228  4853  4855 1
 5229  4852  4853 1
 5230  4852  4865 1
 5231  4850  4851 1
 5232  4850  4852 1
 5233  4850  4868 1
 5234  4849  4850 1
 5235  4847  4848 1
 5236  4847  4849 1
 5237  4847  4866 1
 5238  4844  4845 1
 5239  4844  4846 1
 5240  4844  4847 1
 5241  4843  4844 1
 5242  4840  4841 1
 5243  4840  4842 1
 5244  4840  4843 1
 5245  4905  4906 1
 5246  4903  4904 1
 5247  4901  4902 1
 5248  4901  4903 1
 5249  4899  4900 1
 5250  4899  4901 1
 5251  4899  4905 1
 5252  4897  4898 1
 5253  4895  4896 1
 5254  4895  4897 1
 5255  4894  4895 1
 5256  4891  4892 1
 5257  4891  4893 1
 5258  4890  4891 1
 5259  4890  4894 1
 5260  4889  4890 1
 5261  4889  4898 1
 5262  4888  4889 1
 5263  4886  4887 1
 5264  4886  4888 1
 5265  4885  4886 1
 5266  4885  4898 1
 5267  4883  4884 1
 5268  4883  4885 1
 5269  4883  4901 1
 5270  4882  4883 1
 5271  4880  4881 1
 5272  4880  4882 1
 5273  4880  4899 1
 5274  4877  4878 1
 5275  4877  4879 1
 5276  4877  4880 1
 5277  4876  4877 1
 5278  4873  4874 1
 5279  4873  4875 1
 5280  4873  4876 1
 5281  4938  4939 1
 5282  4936  4937 1
 5283  4934  4935 1
 5284  4934  4936 1
 5285  4932  4933 1
 5286  4932  4934 1
 5287  4932  4938 1
 5288  4930  4931 1
 5289  4928  4929 1
 5290  4928  4930 1
 5291  4927  4928 1
 5292  4924  4925 1
 5293  4924  4926 1
 5294  4923  4924 1
 5295  4923  4927 1
 5296  4922  4923 1
 5297  4922  4931 1
 5298  4921  4922 1
 5299  4919  4920 1
 5300  4919  4921 1
 5301  4918  4919 1
 5302  4918  4931 1
 5303  4916  4917 1
 5304  4916  4918 1
 5305  4916  4934 1
 5306  4915  4916 1
 5307  4913  4914 1
 5308  4913  4915 1
 5309  4913  4932 1
 5310  4910  4911 1
 5311  4910  4912 1
 5312  4910  4913 1
 5313  4909  4910 1
 5314  4906  4907 1
 5315  4906  4908 1
 5316  4906  4909 1
 5317  4968  4969 1
 5318  4966  4967 1
 5319  4964  4965 1
 5320  4964  4966 1
 5321  4962  4963 1
 5322  4962  4964 1
 5323  4962  4968 1
 5324  4960  4961 1
 5325  4958  4959 1
 5326  4958  4960 1
 5327  4956  4957 1
 5328  4956  4958 1
 5329  4954  4955 1
 5330  4954  4956 1
 5331  4952  4953 1
 5332  4952  4954 1
 5333  4951  4952 1
 5334  4951  4960 1
 5335  4949  4950 1
 5336  4949  4951 1
 5337  4949  4964 1
 5338  4948  4949 1
 5339  4946  4947 1
 5340  4946  4948 1
 5341  4946  4962 1
 5342  4943  4944 1
 5343  4943  4945 1
 5344  4943  4946 1
 5345  4942  4943 1
 5346  4939  4940 1
 5347  4939  4941 1
 5348  4939  4942 1
 5349  4998  4999 1
 5350  4996  4997 1
 5351  4994  4995 1
 5352  4994  4996 1
 5353  4992  4993 1
 5354  4992  4994 1
 5355  4992  4998 1
 5356  4990  4991 1
 5357  4988  4989 1
 5358  4988  4990 1
 5359  4986  4987 1
 5360  4986  4988 1
 5361  4984  4985 1
 5362  4984  4986 1
 5363  4982  4983 1
 5364  4982  4984 1
 5365  4981  4982 1
 5366  4981  4990 1
 5367  4979  4980 1
 5368  4979  4981 1
 5369  4979  4994 1
 5370  4978  4979 1
 5371  4976  4977 1
 5372  4976  4978 1
 5373  4976  4992 1
 5374  4973  4974 1
 5375  4973  4975 1
 5376  4973  4976 1
 5377  4972  4973 1
 5378  4969  4970 1
 5379  4969  4971 1
 5380  4969  4972 1
 5381  5031  5032 1
 5382  5029  5030 1
 5383  5027  5028 1
 5384  5027  5029 1
 5385  5025  5026 1
 5386  5025  5027 1
 5387  5025  5031 1
 5388  5023  5024 1
 5389  5021  5022 1
 5390  5021  5023 1
 5391  5020  5021 1
 5392  5017  5018 1
 5393  5017  5019 1
 5394  5016  5017 1
 5395  5016  5020 1
 5396  5015  5016 1
 5397  5015  5024 1
 5398  5014  5015 1
 5399  5012  5013 1
 5400  5012  5014 1
 5401  5011  5012 1
 5402  5011  5024 1
 5403  5009  5010 1
 5404  5009  5011 1
 5405  5009  5027 1
 5406  5008  5009 1
 5407  5006  5007 1
 5408  5006  5008 1
 5409  5006  5025 1
 5410  5003  5004 1
 5411  5003  5005 1
 5412  5003  5006 1
 5413  5002  5003 1
 5414  4999  5000 1
 5415  4999  5001 1
 5416  4999  5002 1
 5417  5064  5065 1
 5418  5062  5063 1
 5419  5060  5061 1
 5420  5060  5062 1
 5421  5058  5059 1
 5422  5058  5060 1
 5423  5058  5064 1
 5424  5056  5057 1
 5425  5054  5055 1
 5426  5054  5056 1
 5427  5053  5054 1
 5428  5050  5051 1
 5429  5050  5052 1
 5430  5049  5050 1
 5431  5049  5053 1
 5432  5048  5049 1
 5433  5048  5057 1
 5434  5047  5048 1
 5435  5045  5046 1
 5436  5045  5047 1
 5437  5044  5045 1
 5438  5044  5057 1
 5439  5042  5043 1
 5440  5042  5044 1
 5441  5042  5060 1
 5442  5041  5042 1
 5443  5039  5040 1
 5444  5039  5041 1
 5445  5039  5058 1
 5446  5036  5037 1
 5447  5036  5038 1
 5448  5036  5039 1
 5449  5035  5036 1
 5450  5032  5033 1
 5451  5032  5034 1
 5452  5032  5035 1
 5453  5095  5096 1
 5454  5093  5094 1
 5455  5091  5092 1
 5456  5091  5093 1
 5457  5089  5090 1
 5458  5089  5091 1
 5459  5089  5095 1
 5460  5087  5088 1
 5461  5086  5087 1
 5462  5083  5084 1
 5463  5083  5085 1
 5464  5082  5083 1
 5465  5082  5086 1
 5466  5080  5081 1
 5467  5080  5082 1
 5468  5078  5079 1
 5469  5078  5080 1
 5470  5077  5078 1
 5471  5077  5087 1
 5472  5075  5076 1
 5473  5075  5077 1
 5474  5075  5091 1
 5475  5074  5075 1
 5476  5072  5073 1
 5477  5072  5074 1
 5478  5072  5089 1
 5479  5069  5070 1
 5480  5069  5071 1
 5481  5069  5072 1
 5482  5068  5069 1
 5483  5065  5066 1
 5484  5065  5067 1
 5485  5065  5068 1
 5486  5125  5126 1
 5487  5123  5124 1
 5488  5121  5122 1
 5489  5121  5123 1
 5490  5119  5120 1
 5491  5119  5121 1
 5492  5119  5125 1
 5493  5117  5118 1
 5494  5115  5116 1
 5495  5115  5117 1
 5496  5113  5114 1
 5497  5113  5115 1
 5498  5111  5112 1
 5499  5111  5113 1
 5500  5109  5110 1
 5501  5109  5111 1
 5502  5108  5109 1
 5503  5108  5117 1
 5504  5106  5107 1
 5505  5106  5108 1
 5506  5106  5121 1
 5507  5105  5106 1
 5508  5103  5104 1
 5509  5103  5105 1
 5510  5103  5119 1
 5511  5100  5101 1
 5512  5100  5102 1
 5513  5100  5103 1
 5514  5099  5100 1
 5515  5096  5097 1
 5516  5096  5098 1
 5517  5096  5099 1
 5518  5158  5159 1
 5519  5156  5157 1
 5520  5154  5155 1
 5521  5154  5156 1
 5522  5152  5153 1
 5523  5152  5154 1
 5524  5152  5158 1
 5525  5150  5151 1
 5526  5148  5149 1
 5527  5148  5150 1
 5528  5147  5148 1
 5529  5144  5145 1
 5530  5144  5146 1
 5531  5143  5144 1
 5532  5143  5147 1
 5533  5142  5143 1
 5534  5142  5151 1
 5535  5141  5142 1
 5536  5139  5140 1
 5537  5139  5141 1
 5538  5138  5139 1
 5539  5138  5151 1
 5540  5136  5137 1
 5541  5136  5138 1
 5542  5136  5154 1
 5543  5135  5136 1
 5544  5133  5134 1
 5545  5133  5135 1
 5546  5133  5152 1
 5547  5130  5131 1
 5548  5130  5132 1
 5549  5130  5133 1
 5550  5129  5130 1
 5551  5126  5127 1
 5552  5126  5128 1
 5553  5126  5129 1
 5554  5191  5192 1
 5555  5189  5190 1
 5556  5187  5188 1
 5557  5187  5189 1
 5558  5185  5186 1
 5559  5185  5187 1
 5560  5185  5191 1
 5561  5183  5184 1
 5562  5181  5182 1
 5563  5181  5183 1
 5564  5180  5181 1
 5565  5177  5178 1
 5566  5177  5179 1
 5567  5176  5177 1
 5568  5176  5180 1
 5569  5175  5176 1
 5570  5175  5184 1
 5571  5174  5175 1
 5572  5172  5173 1
 5573  5172  5174 1
 5574  5171  5172 1
 5575  5171  5184 1
 5576  5169  5170 1
 5577  5169  5171 1
 5578  5169  5187 1
 5579  5168  5169 1
 5580  5166  5167 1
 5581  5166  5168 1
 5582  5166  5185 1
 5583  5163  5164 1
 5584  5163  5165 1
 5585  5163  5166 1
 5586  5162  5163 1
 5587  5159  5160 1
 5588  5159  5161 1
 5589  5159  5162 1
 5590  5224  5225 1
 5591  5222  5223 1
 5592  5220  5221 1
 5593  5220  5222 1
 5594  5218  5219 1
 5595  5218  5220 1
 5596  5218  5224 1
 5597  5216  5217 1
 5598  5214  5215 1
 5599  5214  5216 1
 5600  5213  5214 1
 5601  5210  5211 1
 5602  5210  5212 1
 5603  5209  5210 1
 5604  5209  5213 1
 5605  5208  5209 1
 5606  5208  5217 1
 5607  5207  5208 1
 5608  5205  5206 1
 5609  5205  5207 1
 5610  5204  5205 1
 5611  5204  5217 1
 5612  5202  5203 1
 5613  5202  5204 1
 5614  5202  5220 1
 5615  5201  5202 1
 5616  5199  5200 1
 5617  5199  5201 1
 5618  5199  5218 1
 5619  5196  5197 1
 5620  5196  5198 1
 5621  5196  5199 1
 5622  5195  5196 1
 5623  5192  5193 1
 5624  5192  5194 1
 5625  5192  5195 1
 5626  5258  5259 1
 5627  5256  5257 1
 5628  5254  5255 1
 5629  5254  5256 1
 5630  5252  5253 1
 5631  5252  5254 1
 5632  5252  5258 1
 5633  5250  5251 1
 5634  5247  5248 1
 5635  5247  5249 1
 5636  5246  5247 1
 5637  5246  5250 1
 5638  5244  5245 1
 5639  5244  5246 1
 5640  5242  5243 1
 5641  5242  5244 1
 5642  5241  5242 1
 5643  5241  5251 1
 5644  5240  5241 1
 5645  5238  5239 1
 5646  5238  5240 1
 5647  5237  5238 1
 5648  5237  5251 1
 5649  5235  5236 1
 5650  5235  5237 1
 5651  5235  5254 1
 5652  5234  5235 1
 5653  5232  5233 1
 5654  5232  5234 1
 5655  5232  5252 1
 5656  5229  5230 1
 5657  5229  5231 1
 5658  5229  5232 1
 5659  5228  5229 1
 5660  5225  5226 1
 5661  5225  5227 1
 5662  5225  5228 1
 5663  5291  5292 1
 5664  5289  5290 1
 5665  5287  5288 1
 5666  5287  5289 1
 5667  5285  5286 1
 5668  5285  5287 1
 5669  5285  5291 1
 5670  5283  5284 1
 5671  5281  5282 1
 5672  5281  5283 1
 5673  5280  5281 1
 5674  5277  5278 1
 5675  5277  5279 1
 5676  5276  5277 1
 5677  5276  5280 1
 5678  5275  5276 1
 5679  5275  5284 1
 5680  5274  5275 1
 5681  5272  5273 1
 5682  5272  5274 1
 5683  5271  5272 1
 5684  5271  5284 1
 5685  5269  5270 1
 5686  5269  5271 1
 5687  5269  5287 1
 5688  5268  5269 1
 5689  5266  5267 1
 5690  5266  5268 1
 5691  5266  5285 1
 5692  5263  5264 1
 5693  5263  5265 1
 5694  5263  5266 1
 5695  5262  5263 1
 5696  5259  5260 1
 5697  5259  5261 1
 5698  5259  5262 1
 5699  5324  5325 1
 5700  5322  5323 1
 5701  5320  5321 1
 5702  5320  5322 1
 5703  5318  5319 1
 5704  5318  5320 1
 5705  5318  5324 1
 5706  5316  5317 1
 5707  5314  5315 1
 5708  5314  5316 1
 5709  5313  5314 1
 5710  5310  5311 1
 5711  5310  5312 1
 5712  5309  5310 1
 5713  5309  5313 1
 5714  5308  5309 1
 5715  5308  5317 1
 5716  5307  5308 1
 5717  5305  5306 1
 5718  5305  5307 1
 5719  5304  5305 1
 5720  5304  5317 1
 5721  5302  5303 1
 5722  5302  5304 1
 5723  5302  5320 1
 5724  5301  5302 1
 5725  5299  5300 1
 5726  5299  5301 1
 5727  5299  5318 1
 5728  5296  5297 1
 5729  5296  5298 1
 5730  5296  5299 1
 5731  5295  5296 1
 5732  5292  5293 1
 5733  5292  5294 1
 5734  5292  5295 1
 5735  5358  5359 1
 5736  5356  5357 1
 5737  5354  5355 1
 5738  5354  5356 1
 5739  5352  5353 1
 5740  5352  5354 1
 5741  5352  5358 1
 5742  5350  5351 1
 5743  5347  5348 1
 5744  5347  5349 1
 5745  5346  5347 1
 5746  5346  5350 1
 5747  5344  5345 1
 5748  5344  5346 1
 5749  5342  5343 1
 5750  5342  5344 1
 5751  5341  5342 1
 5752  5341  5351 1
 5753  5340  5341 1
 5754  5338  5339 1
 5755  5338  5340 1
 5756  5337  5338 1
 5757  5337  5351 1
 5758  5335  5336 1
 5759  5335  5337 1
 5760  5335  5354 1
 5761  5334  5335 1
 5762  5332  5333 1
 5763  5332  5334 1
 5764  5332  5352 1
 5765  5329  5330 1
 5766  5329  5331 1
 5767  5329  5332 1
 5768  5328  5329 1
 5769  5325  5326 1
 5770  5325  5327 1
 5771  5325  5328 1
 5772  5389  5390 1
 5773  5387  5388 1
 5774  5385  5386 1
 5775  5385  5387 1
 5776  5383  5384 1
 5777  5383  5385 1
 5778  5383  5389 1
 5779  5381  5382 1
 5780  5380  5381 1
 5781  5377  5378 1
 5782  5377  5379 1
 5783  5376  5377 1
 5784  5376  5380 1
 5785  5374  5375 1
 5786  5374  5376 1
 5787  5372  5373 1
 5788  5372  5374 1
 5789  5371  5372 1
 5790  5371  5381 1
 5791  5369  5370 1
 5792  5369  5371 1
 5793  5369  5385 1
 5794  5368  5369 1
 5795  5366  5367 1
 5796  5366  5368 1
 5797  5366  5383 1
 5798  5363  5364 1
 5799  5363  5365 1
 5800  5363  5366 1
 5801  5362  5363 1
 5802  5359  5360 1
 5803  5359  5361 1
 5804  5359  5362 1
 5805  5423  5424 1
 5806  5421  5422 1
 5807  5419  5420 1
 5808  5419  5421 1
 5809  5417  5418 1
 5810  5417  5419 1
 5811  5417  5423 1
 5812  5415  5416 1
 5813  5412  5413 1
 5814  5412  5414 1
 5815  5411  5412 1
 5816  5411  5415 1
 5817  5409  5410 1
 5818  5409  5411 1
 5819  5407  5408 1
 5820  5407  5409 1
 5821  5406  5407 1
 5822  5406  5416 1
 5823  5405  5406 1
 5824  5403  5404 1
 5825  5403  5405 1
 5826  5402  5403 1
 5827  5402  5416 1
 5828  5400  5401 1
 5829  5400  5402 1
 5830  5400  5419 1
 5831  5399  5400 1
 5832  5397  5398 1
 5833  5397  5399 1
 5834  5397  5417 1
 5835  5394  5395 1
 5836  5394  5396 1
 5837  5394  5397 1
 5838  5393  5394 1
 5839  5390  5391 1
 5840  5390  5392 1
 5841  5390  5393 1
 5842  5457  5458 1
 5843  5455  5456 1
 5844  5453  5454 1
 5845  5453  5455 1
 5846  5451  5452 1
 5847  5451  5453 1
 5848  5451  5457 1
 5849  5449  5450 1
 5850  5446  5447 1
 5851  5446  5448 1
 5852  5445  5446 1
 5853  5445  5449 1
 5854  5443  5444 1
 5855  5443  5445 1
 5856  5441  5442 1
 5857  5441  5443 1
 5858  5440  5441 1
 5859  5440  5450 1
 5860  5439  5440 1
 5861  5437  5438 1
 5862  5437  5439 1
 5863  5436  5437 1
 5864  5436  5450 1
 5865  5434  5435 1
 5866  5434  5436 1
 5867  5434  5453 1
 5868  5433  5434 1
 5869  5431  5432 1
 5870  5431  5433 1
 5871  5431  5451 1
 5872  5428  5429 1
 5873  5428  5430 1
 5874  5428  5431 1
 5875  5427  5428 1
 5876  5424  5425 1
 5877  5424  5426 1
 5878  5424  5427 1
 5879  5490  5491 1
 5880  5488  5489 1
 5881  5486  5487 1
 5882  5486  5488 1
 5883  5484  5485 1
 5884  5484  5486 1
 5885  5484  5490 1
 5886  5482  5483 1
 5887  5479  5480 1
 5888  5479  5481 1
 5889  5478  5479 1
 5890  5478  5482 1
 5891  5476  5477 1
 5892  5476  5478 1
 5893  5474  5475 1
 5894  5474  5476 1
 5895  5473  5474 1
 5896  5473  5483 1
 5897  5472  5473 1
 5898  5470  5471 1
 5899  5470  5472 1
 5900  5469  5470 1
 5901  5469  5483 1
 5902  5467  5468 1
 5903  5467  5469 1
 5904  5467  5486 1
 5905  5466  5467 1
 5906  5464  5465 1
 5907  5464  5466 1
 5908  5464  5484 1
 5909  5461  5462 1
 5910  5461  5463 1
 5911  5461  5464 1
 5912  5460  5461 1
 5913  5459  5460 1
 5914  5524  5525 1
 5915  5522  5523 1
 5916  5520  5521 1
 5917  5520  5522 1
 5918  5518  5519 1
 5919  5518  5520 1
 5920  5518  5524 1
 5921  5516  5517 1
 5922  5513  5514 1
 5923  5513  5515 1
 5924  5512  5513 1
 5925  5512  5516 1
 5926  5510  5511 1
 5927  5510  5512 1
 5928  5508  5509 1
 5929  5508  5510 1
 5930  5507  5508 1
 5931  5507  5517 1
 5932  5506  5507 1
 5933  5504  5505 1
 5934  5504  5506 1
 5935  5503  5504 1
 5936  5503  5517 1
 5937  5501  5502 1
 5938  5501  5503 1
 5939  5501  5520 1
 5940  5500  5501 1
 5941  5498  5499 1
 5942  5498  5500 1
 5943  5498  5518 1
 5944  5495  5496 1
 5945  5495  5497 1
 5946  5495  5498 1
 5947  5494  5495 1
 5948  5491  5492 1
 5949  5491  5493 1
 5950  5491  5494 1
 5951  5557  5558 1
 5952  5555  5556 1
 5953  5553  5554 1
 5954  5553  5555 1
 5955  5551  5552 1
 5956  5551  5553 1
 5957  5551  5557 1
 5958  5549  5550 1
 5959  5547  5548 1
 5960  5547  5549 1
 5961  5546  5547 1
 5962  5543  5544 1
 5963  5543  5545 1
 5964  5542  5543 1
 5965  5542  5546 1
 5966  5541  5542 1
 5967  5541  5550 1
 5968  5540  5541 1
 5969  5538  5539 1
 5970  5538  5540 1
 5971  5537  5538 1
 5972  5537  5550 1
 5973  5535  5536 1
 5974  5535  5537 1
 5975  5535  5553 1
 5976  5534  5535 1
 5977  5532  5533 1
 5978  5532  5534 1
 5979  5532  5551 1
 5980  5529  5530 1
 5981  5529  5531 1
 5982  5529  5532 1
 5983  5528  5529 1
 5984  5525  5526 1
 5985  5525  5527 1
 5986  5525  5528 1
 5987  5588  5589 1
 5988  5586  5587 1
 5989  5584  5585 1
 5990  5584  5586 1
 5991  5582  5583 1
 5992  5582  5584 1
 5993  5582  5588 1
 5994  5580  5581 1
 5995  5579  5580 1
 5996  5576  5577 1
 5997  5576  5578 1
 5998  5575  5576 1
 5999  5575  5579 1
 6000  5573  5574 1
 6001  5573  5575 1
 6002  5571  5572 1
 6003  5571  5573 1
 6004  5570  5571 1
 6005  5570  5580 1
 6006  5568  5569 1
 6007  5568  5570 1
 6008  5568  5584 1
 6009  5567  5568 1
 6010  5565  5566 1
 6011  5565  5567 1
 6012  5565  5582 1
 6013  5562  5563 1
 6014  5562  5564 1
 6015  5562  5565 1
 6016  5561  5562 1
 6017  5558  5559 1
 6018  5558  5560 1
 6019  5558  5561 1
 6020  5619  5620 1
 6021  5617  5618 1
 6022  5615  5616 1
 6023  5615  5617 1
 6024  5613  5614 1
 6025  5613  5615 1
 6026  5613  5619 1
 6027  5611  5612 1
 6028  5610  5611 1
 6029  5607  5608 1
 6030  5607  5609 1
 6031  5606  5607 1
 6032  5606  5610 1
 6033  5604  5605 1
 6034  5604  5606 1
 6035  5602  5603 1
 6036  5602  5604 1
 6037  5601  5602 1
 6038  5601  5611 1
 6039  5599  5600 1
 6040  5599  5601 1
 6041  5599  5615 1
 6042  5598  5599 1
 6043  5596  5597 1
 6044  5596  5598 1
 6045  5596  5613 1
 6046  5593  5594 1
 6047  5593  5595 1
 6048  5593  5596 1
 6049  5592  5593 1
 6050  5589  5590 1
 6051  5589  5591 1
 6052  5589  5592 1
 6053  5652  5653 1
 6054  5650  5651 1
 6055  5648  5649 1
 6056  5648  5650 1
 6057  5646  5647 1
 6058  5646  5648 1
 6059  5646  5652 1
 6060  5644  5645 1
 6061  5642  5643 1
 6062  5642  5644 1
 6063  5641  5642 1
 6064  5638  5639 1
 6065  5638  5640 1
 6066  5637  5638 1
 6067  5637  5641 1
 6068  5636  5637 1
 6069  5636  5645 1
 6070  5635  5636 1
 6071  5633  5634 1
 6072  5633  5635 1
 6073  5632  5633 1
 6074  5632  5645 1
 6075  5630  5631 1
 6076  5630  5632 1
 6077  5630  5648 1
 6078  5629  5630 1
 6079  5627  5628 1
 6080  5627  5629 1
 6081  5627  5646 1
 6082  5624  5625 1
 6083  5624  5626 1
 6084  5624  5627 1
 6085  5623  5624 1
 6086  5620  5621 1
 6087  5620  5622 1
 6088  5620  5623 1
 6089  5685  5686 1
 6090  5683  5684 1
 6091  5681  5682 1
 6092  5681  5683 1
 6093  5679  5680 1
 6094  5679  5681 1
 6095  5679  5685 1
 6096  5677  5678 1
 6097  5675  5676 1
 6098  5675  5677 1
 6099  5674  5675 1
 6100  5671  5672 1
 6101  5671  5673 1
 6102  5670  5671 1
 6103  5670  5674 1
 6104  5669  5670 1
 6105  5669  5678 1
 6106  5668  5669 1
 6107  5666  5667 1
 6108  5666  5668 1
 6109  5665  5666 1
 6110  5665  5678 1
 6111  5663  5664 1
 6112  5663  5665 1
 6113  5663  5681 1
 6114  5662  5663 1
 6115  5660  5661 1
 6116  5660  5662 1
 6117  5660  5679 1
 6118  5657  5658 1
 6119  5657  5659 1
 6120  5657  5660 1
 6121  5656  5657 1
 6122  5653  5654 1
 6123  5653  5655 1
 6124  5653  5656 1
 6125  5719  5720 1
 6126  5717  5718 1
 6127  5715  5716 1
 6128  5715  5717 1
 6129  5713  5714 1
 6130  5713  5715 1
 6131  5713  5719 1
 6132  5711  5712 1
 6133  5708  5709 1
 6134  5708  5710 1
 6135  5707  5708 1
 6136  5707  5711 1
 6137  5705  5706 1
 6138  5705  5707 1
 6139  5703  5704 1
 6140  5703  5705 1
 6141  5702  5703 1
 6142  5702  5712 1
 6143  5701  5702 1
 6144  5699  5700 1
 6145  5699  5701 1
 6146  5698  5699 1
 6147  5698  5712 1
 6148  5696  5697 1
 6149  5696  5698 1
 6150  5696  5715 1
 6151  5695  5696 1
 6152  5693  5694 1
 6153  5693  5695 1
 6154  5693  5713 1
 6155  5690  5691 1
 6156  5690  5692 1
 6157  5690  5693 1
 6158  5689  5690 1
 6159  5686  5687 1
 6160  5686  5688 1
 6161  5686  5689 1
 6162  5752  5753 1
 6163  5750  5751 1
 6164  5748  5749 1
 6165  5748  5750 1
 6166  5746  5747 1
 6167  5746  5748 1
 6168  5746  5752 1
 6169  5744  5745 1
 6170  5742  5743 1
 6171  5742  5744 1
 6172  5741  5742 1
 6173  5738  5739 1
 6174  5738  5740 1
 6175  5737  5738 1
 6176  5737  5741 1
 6177  5736  5737 1
 6178  5736  5745 1
 6179  5735  5736 1
 6180  5733  5734 1
 6181  5733  5735 1
 6182  5732  5733 1
 6183  5732  5745 1
 6184  5730  5731 1
 6185  5730  5732 1
 6186  5730  5748 1
 6187  5729  5730 1
 6188  5727  5728 1
 6189  5727  5729 1
 6190  5727  5746 1
 6191  5724  5725 1
 6192  5724  5726 1
 6193  5724  5727 1
 6194  5723  5724 1
 6195  5720  5721 1
 6196  5720  5722 1
 6197  5720  5723 1
 6198  5782  5783 1
 6199  5780  5781 1
 6200  5778  5779 1
 6201  5778  5780 1
 6202  5776  5777 1
 6203  5776  5778 1
 6204  5776  5782 1
 6205  5774  5775 1
 6206  5772  5773 1
 6207  5772  5774 1
 6208  5770  5771 1
 6209  5770  5772 1
 6210  5768  5769 1
 6211  5768  5770 1
 6212  5766  5767 1
 6213  5766  5768 1
 6214  5765  5766 1
 6215  5765  5774 1
 6216  5763  5764 1
 6217  5763  5765 1
 6218  5763  5778 1
 6219  5762  5763 1
 6220  5760  5761 1
 6221  5760  5762 1
 6222  5760  5776 1
 6223  5757  5758 1
 6224  5757  5759 1
 6225  5757  5760 1
 6226  5756  5757 1
 6227  5753  5754 1
 6228  5753  5755 1
 6229  5753  5756 1
 6230  5815  5816 1
 6231  5813  5814 1
 6232  5811  5812 1
 6233  5811  5813 1
 6234  5809  5810 1
 6235  5809  5811 1
 6236  5809  5815 1
 6237  5807  5808 1
 6238  5805  5806 1
 6239  5805  5807 1
 6240  5804  5805 1
 6241  5801  5802 1
 6242  5801  5803 1
 6243  5800  5801 1
 6244  5800  5804 1
 6245  5799  5800 1
 6246  5799  5808 1
 6247  5798  5799 1
 6248  5796  5797 1
 6249  5796  5798 1
 6250  5795  5796 1
 6251  5795  5808 1
 6252  5793  5794 1
 6253  5793  5795 1
 6254  5793  5811 1
 6255  5792  5793 1
 6256  5790  5791 1
 6257  5790  5792 1
 6258  5790  5809 1
 6259  5787  5788 1
 6260  5787  5789 1
 6261  5787  5790 1
 6262  5786  5787 1
 6263  5783  5784 1
 6264  5783  5785 1
 6265  5783  5786 1
 6266  5849  5850 1
 6267  5847  5848 1
 6268  5845  5846 1
 6269  5845  5847 1
 6270  5843  5844 1
 6271  5843  5845 1
 6272  5843  5849 1
 6273  5841  5842 1
 6274  5838  5839 1
 6275  5838  5840 1
 6276  5837  5838 1
 6277  5837  5841 1
 6278  5835  5836 1
 6279  5835  5837 1
 6280  5833  5834 1
 6281  5833  5835 1
 6282  5832  5833 1
 6283  5832  5842 1
 6284  5831  5832 1
 6285  5829  5830 1
 6286  5829  5831 1
 6287  5828  5829 1
 6288  5828  5842 1
 6289  5826  5827 1
 6290  5826  5828 1
 6291  5826  5845 1
 6292  5825  5826 1
 6293  5823  5824 1
 6294  5823  5825 1
 6295  5823  5843 1
 6296  5820  5821 1
 6297  5820  5822 1
 6298  5820  5823 1
 6299  5819  5820 1
 6300  5816  5817 1
 6301  5816  5818 1
 6302  5816  5819 1
 6303  5882  5883 1
 6304  5880  5881 1
 6305  5878  5879 1
 6306  5878  5880 1
 6307  5876  5877 1
 6308  5876  5878 1
 6309  5876  5882 1
 6310  5874  5875 1
 6311  5872  5873 1
 6312  5872  5874 1
 6313  5871  5872 1
 6314  5868  5869 1
 6315  5868  5870 1
 6316  5867  5868 1
 6317  5867  5871 1
 6318  5866  5867 1
 6319  5866  5875 1
 6320  5865  5866 1
 6321  5863  5864 1
 6322  5863  5865 1
 6323  5862  5863 1
 6324  5862  5875 1
 6325  5860  5861 1
 6326  5860  5862 1
 6327  5860  5878 1
 6328  5859  5860 1
 6329  5857  5858 1
 6330  5857  5859 1
 6331  5857  5876 1
 6332  5854  5855 1
 6333  5854  5856 1
 6334  5854  5857 1
 6335  5853  5854 1
 6336  5850  5851 1
 6337  5850  5852 1
 6338  5850  5853 1
 6339  5915  5916 1
 6340  5913  5914 1
 6341  5911  5912 1
 6342  5911  5913 1
 6343  5909  5910 1
 6344  5909  5911 1
 6345  5909  5915 1
 6346  5907  5908 1
 6347  5905  5906 1
 6348  5905  5907 1
 6349  5904  5905 1
 6350  5901  5902 1
 6351  5901  5903 1
 6352  5900  5901 1
 6353  5900  5904 1
 6354  5899  5900 1
 6355  5899  5908 1
 6356  5898  5899 1
 6357  5896  5897 1
 6358  5896  5898 1
 6359  5895  5896 1
 6360  5895  5908 1
 6361  5893  5894 1
 6362  5893  5895 1
 6363  5893  5911 1
 6364  5892  5893 1
 6365  5890  5891 1
 6366  5890  5892 1
 6367  5890  5909 1
 6368  5887  5888 1
 6369  5887  5889 1
 6370  5887  5890 1
 6371  5886  5887 1
 6372  5883  5884 1
 6373  5883  5885 1
 6374  5883  5886 1
 6375  5945  5946 1
 6376  5943  5944 1
 6377  5941  5942 1
 6378  5941  5943 1
 6379  5939  5940 1
 6380  5939  5941 1
 6381  5939  5945 1
 6382  5937  5938 1
 6383  5935  5936 1
 6384  5935  5937 1
 6385  5933  5934 1
 6386  5933  5935 1
 6387  5931  5932 1
 6388  5931  5933 1
 6389  5929  5930 1
 6390  5929  5931 1
 6391  5928  5929 1
 6392  5928  5937 1
 6393  5926  5927 1
 6394  5926  5928 1
 6395  5926  5941 1
 6396  5925  5926 1
 6397  5923  5924 1
 6398  5923  5925 1
 6399  5923  5939 1
 6400  5920  5921 1
 6401  5920  5922 1
 6402  5920  5923 1
 6403  5919  5920 1
 6404  5916  5917 1
 6405  5916  5918 1
 6406  5916  5919 1
 6407  5979  5980 1
 6408  5977  5978 1
 6409  5975  5976 1
 6410  5975  5977 1
 6411  5973  5974 1
 6412  5973  5975 1
 6413  5973  5979 1
 6414  5971  5972 1
 6415  5968  5969 1
 6416  5968  5970 1
 6417  5967  5968 1
 6418  5967  5971 1
 6419  5965  5966 1
 6420  5965  5967 1
 6421  5963  5964 1
 6422  5963  5965 1
 6423  5962  5963 1
 6424  5962  5972 1
 6425  5961  5962 1
 6426  5959  5960 1
 6427  5959  5961 1
 6428  5958  5959 1
 6429  5958  5972 1
 6430  5956  5957 1
 6431  5956  5958 1
 6432  5956  5975 1
 6433  5955  5956 1
 6434  5953  5954 1
 6435  5953  5955 1
 6436  5953  5973 1
 6437  5950  5951 1
 6438  5950  5952 1
 6439  5950  5953 1
 6440  5949  5950 1
 6441  5946  5947 1
 6442  5946  5948 1
 6443  5946  5949 1
 6444  6012  6013 1
 6445  6010  6011 1
 6446  6008  6009 1
 6447  6008  6010 1
 6448  6006  6007 1
 6449  6006  6008 1
 6450  6006  6012 1
 6451  6004  6005 1
 6452  6002  6003 1
 6453  6002  6004 1
 6454  6001  6002 1
 6455  5998  5999 1
 6456  5998  6000 1
 6457  5997  5998 1
 6458  5997  6001 1
 6459  5996  5997 1
 6460  5996  6005 1
 6461  5995  5996 1
 6462  5993  5994 1
 6463  5993  5995 1
 6464  5992  5993 1
 6465  5992  6005 1
 6466  5990  5991 1
 6467  5990  5992 1
 6468  5990  6008 1
 6469  5989  5990 1
 6470  5987  5988 1
 6471  5987  5989 1
 6472  5987  6006 1
 6473  5984  5985 1
 6474  5984  5986 1
 6475  5984  5987 1
 6476  5983  5984 1
 6477  5980  5981 1
 6478  5980  5982 1
 6479  5980  5983 1
 6480  6046  6047 1
 6481  6044  6045 1
 6482  6042  6043 1
 6483  6042  6044 1
 6484  6040  6041 1
 6485  6040  6042 1
 6486  6040  6046 1
 6487  6038  6039 1
 6488  6035  6036 1
 6489  6035  6037 1
 6490  6034  6035 1
 6491  6034  6038 1
 6492  6032  6033 1
 6493  6032  6034 1
 6494  6030  6031 1
 6495  6030  6032 1
 6496  6029  6030 1
 6497  6029  6039 1
 6498  6028  6029 1
 6499  6026  6027 1
 6500  6026  6028 1
 6501  6025  6026 1
 6502  6025  6039 1
 6503  6023  6024 1
 6504  6023  6025 1
 6505  6023  6042 1
 6506  6022  6023 1
 6507  6020  6021 1
 6508  6020  6022 1
 6509  6020  6040 1
 6510  6017  6018 1
 6511  6017  6019 1
 6512  6017  6020 1
 6513  6016  6017 1
 6514  6013  6014 1
 6515  6013  6015 1
 6516  6013  6016 1
 6517  6076  6077 1
 6518  6074  6075 1
 6519  6072  6073 1
 6520  6072  6074 1
 6521  6070  6071 1
 6522  6070  6072 1
 6523  6070  6076 1
 6524  6068  6069 1
 6525  6066  6067 1
 6526  6066  6068 1
 6527  6064  6065 1
 6528  6064  6066 1
 6529  6062  6063 1
 6530  6062  6064 1
 6531  6060  6061 1
 6532  6060  6062 1
 6533  6059  6060 1
 6534  6059  6068 1
 6535  6057  6058 1
 6536  6057  6059 1
 6537  6057  6072 1
 6538  6056  6057 1
 6539  6054  6055 1
 6540  6054  6056 1
 6541  6054  6070 1
 6542  6051  6052 1
 6543  6051  6053 1
 6544  6051  6054 1
 6545  6050  6051 1
 6546  6047  6048 1
 6547  6047  6049 1
 6548  6047  6050 1
 6549  6106  6107 1
 6550  6104  6105 1
 6551  6102  6103 1
 6552  6102  6104 1
 6553  6100  6101 1
 6554  6100  6102 1
 6555  6100  6106 1
 6556  6098  6099 1
 6557  6096  6097 1
 6558  6096  6098 1
 6559  6094  6095 1
 6560  6094  6096 1
 6561  6092  6093 1
 6562  6092  6094 1
 6563  6090  6091 1
 6564  6090  6092 1
 6565  6089  6090 1
 6566  6089  6098 1
 6567  6087  6088 1
 6568  6087  6089 1
 6569  6087  6102 1
 6570  6086  6087 1
 6571  6084  6085 1
 6572  6084  6086 1
 6573  6084  6100 1
 6574  6081  6082 1
 6575  6081  6083 1
 6576  6081  6084 1
 6577  6080  6081 1
 6578  6077  6078 1
 6579  6077  6079 1
 6580  6077  6080 1
 6581  6140  6141 1
 6582  6138  6139 1
 6583  6136  6137 1
 6584  6136  6138 1
 6585  6134  6135 1
 6586  6134  6136 1
 6587  6134  6140 1
 6588  6132  6133 1
 6589  6129  6130 1
 6590  6129  6131 1
 6591  6128  6129 1
 6592  6128  6132 1
 6593  6126  6127 1
 6594  6126  6128 1
 6595  6124  6125 1
 6596  6124  6126 1
 6597  6123  6124 1
 6598  6123  6133 1
 6599  6122  6123 1
 6600  6120  6121 1
 6601  6120  6122 1
 6602  6119  6120 1
 6603  6119  6133 1
 6604  6117  6118 1
 6605  6117  6119 1
 6606  6117  6136 1
 6607  6116  6117 1
 6608  6114  6115 1
 6609  6114  6116 1
 6610  6114  6134 1
 6611  6111  6112 1
 6612  6111  6113 1
 6613  6111  6114 1
 6614  6110  6111 1
 6615  6107  6108 1
 6616  6107  6109 1
 6617  6107  6110 1
 6618  6173  6174 1
 6619  6171  6172 1
 6620  6169  6170 1
 6621  6169  6171 1
 6622  6167  6168 1
 6623  6167  6169 1
 6624  6167  6173 1
 6625  6165  6166 1
 6626  6163  6164 1
 6627  6163  6165 1
 6628  6162  6163 1
 6629  6159  6160 1
 6630  6159  6161 1
 6631  6158  6159 1
 6632  6158  6162 1
 6633  6157  6158 1
 6634  6157  6166 1
 6635  6156  6157 1
 6636  6154  6155 1
 6637  6154  6156 1
 6638  6153  6154 1
 6639  6153  6166 1
 6640  6151  6152 1
 6641  6151  6153 1
 6642  6151  6169 1
 6643  6150  6151 1
 6644  6148  6149 1
 6645  6148  6150 1
 6646  6148  6167 1
 6647  6145  6146 1
 6648  6145  6147 1
 6649  6145  6148 1
 6650  6144  6145 1
 6651  6141  6142 1
 6652  6141  6143 1
 6653  6141  6144 1
 6654  6206  6207 1
 6655  6204  6205 1
 6656  6202  6203 1
 6657  6202  6204 1
 6658  6200  6201 1
 6659  6200  6202 1
 6660  6200  6206 1
 6661  6198  6199 1
 6662  6196  6197 1
 6663  6196  6198 1
 6664  6195  6196 1
 6665  6192  6193 1
 6666  6192  6194 1
 6667  6191  6192 1
 6668  6191  6195 1
 6669  6190  6191 1
 6670  6190  6199 1
 6671  6189  6190 1
 6672  6187  6188 1
 6673  6187  6189 1
 6674  6186  6187 1
 6675  6186  6199 1
 6676  6184  6185 1
 6677  6184  6186 1
 6678  6184  6202 1
 6679  6183  6184 1
 6680  6181  6182 1
 6681  6181  6183 1
 6682  6181  6200 1
 6683  6178  6179 1
 6684  6178  6180 1
 6685  6178  6181 1
 6686  6177  6178 1
 6687  6174  6175 1
 6688  6174  6176 1
 6689  6174  6177 1
 6690  6240  6241 1
 6691  6238  6239 1
 6692  6236  6237 1
 6693  6236  6238 1
 6694  6234  6235 1
 6695  6234  6236 1
 6696  6234  6240 1
 6697  6232  6233 1
 6698  6229  6230 1
 6699  6229  6231 1
 6700  6228  6229 1
 6701  6228  6232 1
 6702  6226  6227 1
 6703  6226  6228 1
 6704  6224  6225 1
 6705  6224  6226 1
 6706  6223  6224 1
 6707  6223  6233 1
 6708  6222  6223 1
 6709  6220  6221 1
 6710  6220  6222 1
 6711  6219  6220 1
 6712  6219  6233 1
 6713  6217  6218 1
 6714  6217  6219 1
 6715  6217  6236 1
 6716  6216  6217 1
 6717  6214  6215 1
 6718  6214  6216 1
 6719  6214  6234 1
 6720  6211  6212 1
 6721  6211  6213 1
 6722  6211  6214 1
 6723  6210  6211 1
 6724  6207  6208 1
 6725  6207  6209 1
 6726  6207  6210 1
 6727  6270  6271 1
 6728  6268  6269 1
 6729  6266  6267 1
 6730  6266  6268 1
 6731  6264  6265 1
 6732  6264  6266 1
 6733  6264  6270 1
 6734  6262  6263 1
 6735  6260  6261 1
 6736  6260  6262 1
 6737  6258  6259 1
 6738  6258  6260 1
 6739  6256  6257 1
 6740  6256  6258 1
 6741  6254  6255 1
 6742  6254  6256 1
 6743  6253  6254 1
 6744  6253  6262 1
 6745  6251  6252 1
 6746  6251  6253 1
 6747  6251  6266 1
 6748  6250  6251 1
 6749  6248  6249 1
 6750  6248  6250 1
 6751  6248  6264 1
 6752  6245  6246 1
 6753  6245  6247 1
 6754  6245  6248 1
 6755  6244  6245 1
 6756  6241  6242 1
 6757  6241  6243 1
 6758  6241  6244 1
 6759  6303  6304 1
 6760  6301  6302 1
 6761  6299  6300 1
 6762  6299  6301 1
 6763  6297  6298 1
 6764  6297  6299 1
 6765  6297  6303 1
 6766  6295  6296 1
 6767  6293  6294 1
 6768  6293  6295 1
 6769  6292  6293 1
 6770  6289  6290 1
 6771  6289  6291 1
 6772  6288  6289 1
 6773  6288  6292 1
 6774  6287  6288 1
 6775  6287  6296 1
 6776  6286  6287 1
 6777  6284  6285 1
 6778  6284  6286 1
 6779  6283  6284 1
 6780  6283  6296 1
 6781  6281  6282 1
 6782  6281  6283 1
 6783  6281  6299 1
 6784  6280  6281 1
 6785  6278  6279 1
 6786  6278  6280 1
 6787  6278  6297 1
 6788  6275  6276 1
 6789  6275  6277 1
 6790  6275  6278 1
 6791  6274  6275 1
 6792  6271  6272 1
 6793  6271  6273 1
 6794  6271  6274 1
 6795  6333  6334 1
 6796  6331  6332 1
 6797  6329  6330 1
 6798  6329  6331 1
 6799  6327  6328 1
 6800  6327  6329 1
 6801  6327  6333 1
 6802  6325  6326 1
 6803  6323  6324 1
 6804  6323  6325 1
 6805  6321  6322 1
 6806  6321  6323 1
 6807  6319  6320 1
 6808  6319  6321 1
 6809  6317  6318 1
 6810  6317  6319 1
 6811  6316  6317 1
 6812  6316  6325 1
 6813  6314  6315 1
 6814  6314  6316 1
 6815  6314  6329 1
 6816  6313  6314 1
 6817  6311  6312 1
 6818  6311  6313 1
 6819  6311  6327 1
 6820  6308  6309 1
 6821  6308  6310 1
 6822  6308  6311 1
 6823  6307  6308 1
 6824  6304  6305 1
 6825  6304  6306 1
 6826  6304  6307 1
 6827  6366  6367 1
 6828  6364  6365 1
 6829  6362  6363 1
 6830  6362  6364 1
 6831  6360  6361 1
 6832  6360  6362 1
 6833  6360  6366 1
 6834  6358  6359 1
 6835  6356  6357 1
 6836  6356  6358 1
 6837  6355  6356 1
 6838  6352  6353 1
 6839  6352  6354 1
 6840  6351  6352 1
 6841  6351  6355 1
 6842  6350  6351 1
 6843  6350  6359 1
 6844  6349  6350 1
 6845  6347  6348 1
 6846  6347  6349 1
 6847  6346  6347 1
 6848  6346  6359 1
 6849  6344  6345 1
 6850  6344  6346 1
 6851  6344  6362 1
 6852  6343  6344 1
 6853  6341  6342 1
 6854  6341  6343 1
 6855  6341  6360 1
 6856  6338  6339 1
 6857  6338  6340 1
 6858  6338  6341 1
 6859  6337  6338 1
 6860  6334  6335 1
 6861  6334  6336 1
 6862  6334  6337 1
@<TRIPOS>SUBSTRUCTURE
      1   G5              1 ****               0 ****  **** 
      2    G             33 ****               0 ****  **** 
      3    U             67 ****               0 ****  **** 
      4    C             97 ****               0 ****  **** 
      5    C            128 ****               0 ****  **** 
      6    U            159 ****               0 ****  **** 
      7    A            189 ****               0 ****  **** 
      8    U            222 ****               0 ****  **** 
      9    A            252 ****               0 ****  **** 
     10    C            285 ****               0 ****  **** 
     11    U            316 ****               0 ****  **** 
     12    U            346 ****               0 ****  **** 
     13    C            376 ****               0 ****  **** 
     14    A            407 ****               0 ****  **** 
     15    A            440 ****               0 ****  **** 
     16    C            473 ****               0 ****  **** 
     17    U            504 ****               0 ****  **** 
     18    G            534 ****               0 ****  **** 
     19    U            568 ****               0 ****  **** 
     20    U            598 ****               0 ****  **** 
     21    A            628 ****               0 ****  **** 
     22    A            661 ****               0 ****  **** 
     23    U            694 ****               0 ****  **** 
     24    U            724 ****               0 ****  **** 
     25    U            754 ****               0 ****  **** 
     26    C            784 ****               0 ****  **** 
     27    U            815 ****               0 ****  **** 
     28    G            845 ****               0 ****  **** 
     29    C            879 ****               0 ****  **** 
     30    C            910 ****               0 ****  **** 
     31    G            941 ****               0 ****  **** 
     32    C            975 ****               0 ****  **** 
     33    U           1006 ****               0 ****  **** 
     34    U           1036 ****               0 ****  **** 
     35    C           1066 ****               0 ****  **** 
     36    U           1097 ****               0 ****  **** 
     37    U           1127 ****               0 ****  **** 
     38    U           1157 ****               0 ****  **** 
     39    A           1187 ****               0 ****  **** 
     40    C           1220 ****               0 ****  **** 
     41    A           1251 ****               0 ****  **** 
     42    U           1284 ****               0 ****  **** 
     43    U           1314 ****               0 ****  **** 
     44    C           1344 ****               0 ****  **** 
     45    U           1375 ****               0 ****  **** 
     46    A           1405 ****               0 ****  **** 
     47    U           1438 ****               0 ****  **** 
     48    C           1468 ****               0 ****  **** 
     49    U           1499 ****               0 ****  **** 
     50   U3           1529 ****               0 ****  **** 
     51   G5           1560 ****               0 ****  **** 
     52    G           1592 ****               0 ****  **** 
     53    U           1626 ****               0 ****  **** 
     54    C           1656 ****               0 ****  **** 
     55    C           1687 ****               0 ****  **** 
     56    U           1718 ****               0 ****  **** 
     57    A           1748 ****               0 ****  **** 
     58    U           1781 ****               0 ****  **** 
     59    A           1811 ****               0 ****  **** 
     60    C           1844 ****               0 ****  **** 
     61    U           1875 ****               0 ****  **** 
     62    U           1905 ****               0 ****  **** 
     63    C           1935 ****               0 ****  **** 
     64    A           1966 ****               0 ****  **** 
     65    A           1999 ****               0 ****  **** 
     66    C           2032 ****               0 ****  **** 
     67    U           2063 ****               0 ****  **** 
     68    G           2093 ****               0 ****  **** 
     69    U           2127 ****               0 ****  **** 
     70    U           2157 ****               0 ****  **** 
     71    A           2187 ****               0 ****  **** 
     72    A           2220 ****               0 ****  **** 
     73    U           2253 ****               0 ****  **** 
     74    U           2283 ****               0 ****  **** 
     75    U           2313 ****               0 ****  **** 
     76    C           2343 ****               0 ****  **** 
     77    U           2374 ****               0 ****  **** 
     78    G           2404 ****               0 ****  **** 
     79    C           2438 ****               0 ****  **** 
     80    C           2469 ****               0 ****  **** 
     81    G           2500 ****               0 ****  **** 
     82    C           2534 ****               0 ****  **** 
     83    U           2565 ****               0 ****  **** 
     84    U           2595 ****               0 ****  **** 
     85    C           2625 ****               0 ****  **** 
     86    U           2656 ****               0 ****  **** 
     87    U           2686 ****               0 ****  **** 
     88    U           2716 ****               0 ****  **** 
     89    A           2746 ****               0 ****  **** 
     90    C           2779 ****               0 ****  **** 
     91    A           2810 ****               0 ****  **** 
     92    U           2843 ****               0 ****  **** 
     93    U           2873 ****               0 ****  **** 
     94    C           2903 ****               0 ****  **** 
     95    U           2934 ****               0 ****  **** 
     96    A           2964 ****               0 ****  **** 
     97    U           2997 ****               0 ****  **** 
     98    C           3027 ****               0 ****  **** 
     99    U           3058 ****               0 ****  **** 
    100   U3           3088 ****               0 ****  **** 
    101   G5           3119 ****               0 ****  **** 
    102    G           3151 ****               0 ****  **** 
    103    A           3185 ****               0 ****  **** 
    104    C           3218 ****               0 ****  **** 
    105    C           3249 ****               0 ****  **** 
    106    A           3280 ****               0 ****  **** 
    107    A           3313 ****               0 ****  **** 
    108    G           3346 ****               0 ****  **** 
    109    A           3380 ****               0 ****  **** 
    110    U           3413 ****               0 ****  **** 
    111    A           3443 ****               0 ****  **** 
    112    G           3476 ****               0 ****  **** 
    113    A           3510 ****               0 ****  **** 
    114    A           3543 ****               0 ****  **** 
    115    U           3576 ****               0 ****  **** 
    116    G           3606 ****               0 ****  **** 
    117    A           3640 ****               0 ****  **** 
    118    G           3673 ****               0 ****  **** 
    119    U           3707 ****               0 ****  **** 
    120    U           3737 ****               0 ****  **** 
    121    G           3767 ****               0 ****  **** 
    122    A           3801 ****               0 ****  **** 
    123    A           3834 ****               0 ****  **** 
    124    G           3867 ****               0 ****  **** 
    125    U           3901 ****               0 ****  **** 
    126    A           3931 ****               0 ****  **** 
    127    U           3964 ****               0 ****  **** 
    128   A3           3994 ****               0 ****  **** 
    129   C5           4028 ****               0 ****  **** 
    130    A           4057 ****               0 ****  **** 
    131    G           4090 ****               0 ****  **** 
    132    A           4124 ****               0 ****  **** 
    133    A           4157 ****               0 ****  **** 
    134    A           4190 ****               0 ****  **** 
    135    U           4223 ****               0 ****  **** 
    136    U           4253 ****               0 ****  **** 
    137    A           4283 ****               0 ****  **** 
    138    A           4316 ****               0 ****  **** 
    139    C           4349 ****               0 ****  **** 
    140    U           4380 ****               0 ****  **** 
    141    A           4410 ****               0 ****  **** 
    142    A           4443 ****               0 ****  **** 
    143    A           4476 ****               0 ****  **** 
    144    G           4509 ****               0 ****  **** 
    145    A           4543 ****               0 ****  **** 
    146    A           4576 ****               0 ****  **** 
    147    G           4609 ****               0 ****  **** 
    148    C           4643 ****               0 ****  **** 
    149    G           4674 ****               0 ****  **** 
    150    G           4708 ****               0 ****  **** 
    151    C           4742 ****               0 ****  **** 
    152    A           4773 ****               0 ****  **** 
    153    G           4806 ****               0 ****  **** 
    154    A           4840 ****               0 ****  **** 
    155    A           4873 ****               0 ****  **** 
    156    A           4906 ****               0 ****  **** 
    157    U           4939 ****               0 ****  **** 
    158    U           4969 ****               0 ****  **** 
    159    A           4999 ****               0 ****  **** 
    160    A           5032 ****               0 ****  **** 
    161    C           5065 ****               0 ****  **** 
    162    U           5096 ****               0 ****  **** 
    163    A           5126 ****               0 ****  **** 
    164    A           5159 ****               0 ****  **** 
    165    A           5192 ****               0 ****  **** 
    166    G           5225 ****               0 ****  **** 
    167    A           5259 ****               0 ****  **** 
    168    A           5292 ****               0 ****  **** 
    169    G           5325 ****               0 ****  **** 
    170    C           5359 ****               0 ****  **** 
    171    G           5390 ****               0 ****  **** 
    172   G3           5424 ****               0 ****  **** 
    173   G5           5459 ****               0 ****  **** 
    174    G           5491 ****               0 ****  **** 
    175    A           5525 ****               0 ****  **** 
    176    C           5558 ****               0 ****  **** 
    177    C           5589 ****               0 ****  **** 
    178    A           5620 ****               0 ****  **** 
    179    A           5653 ****               0 ****  **** 
    180    G           5686 ****               0 ****  **** 
    181    A           5720 ****               0 ****  **** 
    182    U           5753 ****               0 ****  **** 
    183    A           5783 ****               0 ****  **** 
    184    G           5816 ****               0 ****  **** 
    185    A           5850 ****               0 ****  **** 
    186    A           5883 ****               0 ****  **** 
    187    U           5916 ****               0 ****  **** 
    188    G           5946 ****               0 ****  **** 
    189    A           5980 ****               0 ****  **** 
    190    G           6013 ****               0 ****  **** 
    191    U           6047 ****               0 ****  **** 
    192    U           6077 ****               0 ****  **** 
    193    G           6107 ****               0 ****  **** 
    194    A           6141 ****               0 ****  **** 
    195    A           6174 ****               0 ****  **** 
    196    G           6207 ****               0 ****  **** 
    197    U           6241 ****               0 ****  **** 
    198    A           6271 ****               0 ****  **** 
    199    U           6304 ****               0 ****  **** 
    200   A3           6334 ****               0 ****  **** 
